22|90|Public
50|$|The Portable Digital Media Interface (PDMI) is a 30-pin <b>interconnection</b> <b>standard</b> for {{portable}} media players. It {{was developed}} by the Consumer Electronics Association as ANSI/CEA-2017-A, Common Interconnection for Portable Media Players in February 2010. The standard was developed with the input or support of over fifty consumer electronics companies worldwide.|$|E
50|$|PXImc is an <b>interconnection</b> <b>standard</b> {{that allows}} {{multiple}} PXI systems {{to be linked}} together, with each system potentially including both instrumentation and processing. Using PXImc, data gathered from one system can be processed in parallel on multiple computing nodes, or a single PC can access instruments in several PXI chassis.|$|E
5000|$|PDMI (Portable Digital Media Interface) is an <b>interconnection</b> <b>standard</b> for {{portable}} media players. It {{has been}} developed by CEA (Consumer Electronics Association) as ANSI/CEA-2017-A standard Common Interconnection for Portable Media Players in February 2010. Chaired by David McLauchlan from Microsoft, the standard was developed with the input or support of over fifty consumer electronics companies worldwide.|$|E
40|$|A {{large-scale}} PV installation has {{a profound}} effect on the power quality and operation of the grid. Therefore, as installations of PV systems increase, changes to both technologies and <b>interconnection</b> <b>standards</b> are needed to address these high PV penetration systems. This paper investigates the main technical impacts of large-scale PV generations on power grids and associated <b>interconnection</b> <b>standards.</b> A case study by using the PSS/E software in the Kinmen power system was implemented to study the steady-state and transient characteristics for the high penetration PV systems...|$|R
30|$|The MCS {{ties the}} point of {{connection}} between the microgrid and the upstream distribution system. The interconnection switches are designed to meet grid <b>interconnection</b> <b>standards</b> (IEEE 1547 and UL 1741 for North America) to minimize custom engineering and site-specific approval processes and lower cost [13].|$|R
5000|$|Intel Corporation defined {{form factor}} and <b>interconnection</b> <b>standards</b> for {{notebook}} computer components, including [...] "Barebones" [...] (chassis and motherboard), hard disk drive, optical disk drive, LCD, battery pack, keyboard, and AC/DC adapter. These building blocks are primarily marketed to computer building companies, rather than DIY users.|$|R
50|$|SBus was {{originally}} announced {{as both a}} system bus and a peripheral interconnect that allowed input and output devices relatively low latency access to memory. However, soon memory and central processing unit (CPU) speeds outpaced I/O performance. Within a year some Sun systems used MBus, another <b>interconnection</b> <b>standard,</b> as a CPU—memory bus. The SBus served as an input/output bus {{for the rest of}} its lifetime.|$|E
40|$|Avionics {{architectures}} are evolving from “Federated ” systems {{consisting of}} highly specialized black boxes connected together via MIL-STD- 1553 and ARINC 429 data buses to “Integrated ” and “Distributed ” architectures. These new architectures contain high data-rate sensors, parallel processors, and shared memory {{with high levels}} of integration. These systems require a new interconnection system that overcomes the limitations of older standards. Fibre Channel is a family of ANSI standards that define an interconnection system well suited to this task. This paper evaluates Fibre Channel as an avionics <b>interconnection</b> <b>standard.</b> It begins b...|$|E
40|$|AMBA) is {{a widely}} used <b>interconnection</b> <b>standard</b> for System on Chip (SoC) design. An AMBA-based {{microcontroller}} typically consists of a high-performance system backbone bus (AMBA AHB or AMBA ASB), able to sustain the external memory bandwidth, on which the CPU, on-chip memory and other Direct Memory Access (DMA) devices reside. This bus provides a high-bandwidth interface between the elements {{that are involved in}} the majority of transfers. This paper present three distinct buses and their comparison. By considering merits of APB, AMBA can be design by using HDL...|$|E
40|$|Historically, {{the absence}} of <b>interconnection</b> <b>standards</b> {{has been one of}} the primary {{barriers}} to the deployment of distributed generation (DG) in the United States. Although significant progress in the development of <b>interconnection</b> <b>standards</b> was achieved at both the federal and state levels in 2005, interconnection policy and net-metering policy continue to confound regulators, lawmakers, DG businesses, clean-energy advocates and consumers. For this reason it is critical to keep track of developments related to these issues. The North Carolina Solar Center (NCSC) is home to two Interstate Renewable Energy Council (IREC) projects [...] the National Interconnection Project and the Database of State Incentives for Renewable Energy (DSIRE). This paper will present the major federal and state level policy developments in interconnection and net metering in 2005 and early 2006. It will also present conclusions based an analysis of data collected by these two projects...|$|R
50|$|Ofcom {{regulates the}} UK {{telecoms}} sector, defining and enforcing the conditions by which all mobile and fixed-line phone and broadband companies must abide. These 'general conditions' are wide-ranging rules relating to {{matters such as}} telephone numbering, emergency services, sales, marketing and <b>interconnection</b> <b>standards.</b> Ofcom's investigation unit monitors compliance with the conditions and resolves disputes between providers.|$|R
50|$|For example, Transport Layer Security (TLS) is a {{cryptographic}} protocol {{that is used}} {{to secure}} web (HTTP/HTTPS) connections. It has an entity authentication mechanism, based on the X.509 system; a key setup phase, where a symmetric encryption key is formed by employing public-key cryptography; and an application-level data transport function. These three aspects have important <b>interconnections.</b> <b>Standard</b> TLS does not have non-repudiation support.|$|R
40|$|Concepts {{relevant}} {{to the development of}} an evolvable information management system are examined in terms of support for the Space Exploration Initiative. The issues of interoperability within NASA and industry initiatives are studied including the Open Systems <b>Interconnection</b> <b>standard</b> and the operating system of the Open Software Foundation. The requirements of partitioning functionality into separate areas are determined with attention given to the infrastructure required to ensure system-wide compliance. The need for a decision-making context is a key to the distributed implementation of the program, and this environment is concluded to be next step in developing an evolvable, interoperable, and securable support network...|$|E
40|$|The ARM Advanced Microcontroller Bus Architecture (AMBA) is {{a widely}} used <b>interconnection</b> <b>standard</b> for MPSoC design. This paper {{describes}} a method for the functional verification and performance evaluation of AMBA-based MPSoC designs by combining transaction-level simulations and model checking. The application of formal methods provides a way for functional verification and allows to obtain end-to-end execution bounds of AMBA-based MPSoC designs. Using our formal models {{we were able to}} uncover an undocumented ambiguous case in the AMBA specification that can lead to deadlocks. We demonstrate how the combination of transaction-level simulations and model checking can be used to evaluate design alternatives for a digital camera case study, and guarantee the correctness of the design...|$|E
40|$|This paper {{describes}} a Grid Interconnection System Evaluator (GISE) that leverages hardware-in-the-loop (HIL) simulation techniques to rapidly evaluate the grid <b>interconnection</b> <b>standard</b> conformance of an ICS {{according to the}} procedures in IEEE Std 1547. 1. The architecture and test sequencing of this evaluation tool, along {{with a set of}} representative ICS test results from three different photovoltaic (PV) inverters, are presented. The GISE adds to the National Renewable Energy Laboratory's (NREL) evaluation platform that now allows for rapid development of ICS control algorithms using controller HIL (CHIL) techniques, the ability to test the dc input characteristics of PV-based ICSs {{through the use of a}} PV simulator capable of simulating real-world dynamics using power HIL (PHIL), and evaluation of ICS grid interconnection conformance...|$|E
50|$|Net {{metering}} and <b>interconnection</b> <b>standards</b> updated. The NYPSC approved tariff filings {{of the six}} investor owned utilities in New York {{to encourage}} the installation of residential micro CHP and fuel cell electric generation systems that enable homeowners to sell excess power to the utility. New Yorks' net metering rules permit residential fuel cell and CHP installations of up to 10 kW each.|$|R
40|$|California. Ms. Stanfield’s {{practice}} {{focuses on}} the intersection between renewable energy regulation and environmental and land use law, with a particular focus on regulatory policy implementation, compliance and permitting processes. On behalf of IREC, Ms. Stanfield works to improve the efficiency and efficacy of the permitting process for distributed generation solar systems. She also is a leading voice {{for the improvement of}} <b>interconnection</b> <b>standards</b> and their interaction with the procurement and land use permitting processes in California. Contact Sky a...|$|R
40|$|Current <b>interconnection</b> <b>standards</b> {{providing}} hardware {{support for}} {{quality of service}} (QoS) consider up to 16 virtual channels (VCs) for this purpose. However, most implementations do not offer so many because VCs increase {{the complexity of the}} switch and the scheduling delays. We have shown that this number of VCs can be significantly reduced, because it is enough to use two VCs for QoS purposes at each switch port. In this paper, we explore two alternative switch designs that take advantage of this reduction. ...|$|R
40|$|This paper, {{presented}} at the IEEE Green Technologies Conference 2013, describes a Grid Interconnection System Evaluator (GISE) that leverages hardware-in-the-loop (HIL) simulation techniques to rapidly evaluate the grid <b>interconnection</b> <b>standard</b> conformance of an ICS according to the procedures in IEEE Std 1547. 1 (TM). The architecture and test sequencing of this evaluation tool, along {{with a set of}} representative ICS test results from three different photovoltaic (PV) inverters, are presented. The GISE adds to the National Renewable Energy Laboratory's (NREL) evaluation platform that now allows for rapid development of ICS control algorithms using controller HIL (CHIL) techniques, the ability to test the dc input characteristics of PV-based ICSs {{through the use of a}} PV simulator capable of simulating real-world dynamics using power HIL (PHIL), and evaluation of ICS grid interconnection conformance...|$|E
40|$|Architecture (AMBA) is {{a widely}} used <b>interconnection</b> <b>standard</b> for System on Chip (SoC) design. In order to support {{high-speed}} pipelined data transfers, AMBA 4. 0 supports a rich set of bus signals, making the analysis of AMBA-based embedded systems a challenging Proposition. The goal {{of this paper is}} to synthesize and simulate a complex interface bridge for Advanced High performance Bus (AHB) as well as Advanced Peripheral Bus (APB) to support for both high bandwidth and low bandwidth data transfer using a single AXI 4. 0 lite transaction. The data transition distinction is made by N- bit comparator which is designed for switching over between APB and AHB. The Paper also involves the Back annotation for Synthesized Net list of Bridge module and to perform Functional and Timing Simulation using Xilinx. Keywords-SoC; AMBA; AXI; APB; AH...|$|E
40|$|Optimal {{design of}} LCL filter for grid {{connected}} inverter system is studied. For that, initially normal design is considered. Higher order LCL filters are essential {{in meeting the}} <b>interconnection</b> <b>standard</b> requirement for grid-connected voltage source converters. The IEEE 1547 - 2008 specifications for high-frequency current ripple are used as a major constraint early in the design {{to ensure that all}} subsequent optimizations are still compliant with the standards. The LCL filter is designed accordingly and optimal inductance and capacitance values are obtained. Novel small signal model of a three phase grid connected VSI has been derived and its relevant transfer functions have been deduced from it so as to analyze the system for designing a controller and also bode plots have been plotted. Stability Analysis of Grid-Connected Inverters with an LCL Filter Considering Grid Impedance and comparative study between unipolar and bi-polar switching scheme for grid-connected inverter system is also done. Simulation is done in MATLAB SIMULINK environment for feasibility of the study...|$|E
50|$|The {{connector}} {{is standard}} on all 5.25 inch floppy drives, 3.5 inch PATA and non-SCA SCSI disk drives; however, newer SATA disk drives employ {{a more advanced}} interconnection with 15 contacts. These advanced connection systems were first developed by Molex and other connector companies, often working together to develop <b>interconnection</b> <b>standards.</b> As SATA becomes more prevalent, Molex connectors can be found repurposed, through use of an adaptor, to serve as six-pin PCIe power connectors {{to make up for}} a lack of such connectors on a power supply.|$|R
50|$|A DCS {{typically}} uses custom-designed processors as controllers, {{and uses}} either proprietary <b>interconnections</b> or <b>standard</b> protocols for communication.Input and output modules form the peripheral {{components of the}} system.|$|R
50|$|Many {{professional}} audio {{systems are}} now combined with telecommunication and IT technologies to provide new functionality, flexibility and connectivity over {{both local and}} wide area networks. AES47 was developed to provide a standardised method of transporting the existing standard for digital audio (AES3) over current telecommunication <b>interconnection</b> <b>standards</b> that provide a quality of service required by many professional low latency, uncompressed live audio uses. It may be used directly between specialist audio devices or in combination with telecommunication and computer equipment with suitable network interfaces and utilises the same physical structured cable used as standard by those networks.|$|R
40|$|Higher order LCL {{filters are}} {{essential}} {{in meeting the}} <b>interconnection</b> <b>standard</b> requirement for grid-connected voltage source converters. LCL filters offer better harmonic attenuation and better efficiency at a smaller size {{when compared to the}} traditional L filters. The focus {{of this paper is to}} analyze the LCL filter design procedure from the point of view of power loss and efficiency. The IEEE 1547 - 2008 specifications for high-frequency current ripple are used as a major constraint early in the design to ensure that all subsequent optimizations are still compliant with the standards. Power loss in each individual filter component is calculated on a per-phase basis. The total inductance per unit of the LCL filter is varied, and LCL parameter values which give the highest efficiency while simultaneously meeting the stringent standard requirements are identified. The power loss and harmonic output spectrum of the grid-connected LCL filter is experimentally verified, and measurements confirm the predicted trends...|$|E
40|$|Growing {{concerns}} about {{greenhouse gas emissions}} as well as electricity prices have led to more serious efforts {{by the state and}} federal government to provide promote renewable energy at affordable costs. I examine the effect of policies and incentives on added commercial solar PV capacity while controlling for pro-environmental preferences, energy prices, geographic controls, and demographic controls. I use county-level data that spans twelve northeastern states and the District of Columbia from 2005 through 2013. I utilize the Tobit estimator to account for a mass point of solar PV capacity at zero kilowatts. The results suggest that loans, performance-based incentives, rebates, sales tax waivers, and net metering standards increase the amount of added solar PV capacity. Solar Renewable Energy credits have a small impact on PV capacity growth, while <b>interconnection</b> <b>standard</b> and renewable portfolio standards are not statistically significant. If policy administrators aim {{to increase the amount of}} commercial solar PV, then they should consider loans, rebates, and performance-based incentives as the most effective policies...|$|E
40|$|The {{installation}} of PV system aims {{to obtain the}} maximum benefit of captured solar radiation energy and to convert them into electricity. The different techniques of modeling and control of grid connected photovoltaic system with objective to help intensive penetration of solar electricity into grid have been proposed so far in different papers. The current methodologies for optimizing of generation power of PV system are not completely efficient. Therefore lot of research work is required for overall configuration of the grid connected PV system, the MPPT (Maximum Power Point Tracking) algorithm, the synchronization of the inverter and the connection to the grid. This paper focused on the grid connected photovoltaic system based on control technique of the generation power by changing of phase angle of the inverter output voltage and grid voltage. In order to synchronize an alternative current output of the PV system’s inverter into grid, the proposed method has been described, simulated by Matlab Simulink and validated by experimental results. This paper helps to give a study results about <b>interconnection</b> <b>standard,</b> power generation optimization method of PV system into power grid and their importance. The {{installation of}} PV system aims to obtain the maximum benefit of captured solar radiation energy and to convert them into electricity. The different techniques of modeling and control of grid connected photovoltaic system with objective to help intensive penetration of solar electricity into grid have been proposed so far in different papers. The current methodologies for optimizing of generation power of PV system are not completely efficient. Therefore lot of research work is required for overall configuration of the grid connected PV system, the MPPT (Maximum Power Point Tracking) algorithm, the synchronization of the inverter and the connection to the grid. This paper focused on the grid connected photovoltaic system based on control technique of the generation power by changing of phase angle of the inverter output voltage and grid voltage. In order to synchronize an alternative current output of the PV system’s inverter into grid, the proposed method has been described, simulated by Matlab Simulink and validated by experimental results. This paper helps to give a study results about <b>interconnection</b> <b>standard,</b> power generation optimization method of PV system into power grid and their importance...|$|E
40|$|This paper elaborates on the {{application}} of the MDA approach for achieve interoperability among existing Enterprise Applications, such as Enterprise Resource Planning (ERP) and Customer Relationship Management (CRM) systems, through utilizing XML/B 2 B <b>interconnection</b> <b>standards,</b> developing components and modifying existing systems where necessary. We present the PRAXIS project design as a specific case study of this approach, describing the way in which interoperability-oriented high level model mappings are providing the means for guiding the model-driven development of interoperable Enterprise Applications. Specifically, we focus on the transformation processes that drive the Computation Independent System model into the Platform independent and finally the Platform Specific Model, including our final design decisions for the PRAXIS system...|$|R
50|$|Several {{states have}} energy acts that {{establish}} provisions for tax exemptions and {{corporate income tax}} credits aimed at promoting infrastructure development that supports hydrogen stationary power technologies. In addition, there are production tax credits that provide corporate income tax credits based {{on the amount of}} electricity produced from stationary hydrogen power sources. All state policies, including incentives, tax credits, grants, RPS, <b>interconnection</b> <b>standards,</b> initiatives, and partnerships about stationary hydrogen fuel cell installations {{can be found on the}} State Fuel Cell and Hydrogen Database created by FuellCells.org. FuelCells.org also provides a fuel cell Policy Activity Wrapup for fuel cells and hydrogen for the year 2010. This wrap-up includes 2010 legislation and policy only. Several of the incentives and policies involving stationary hydrogen power are explained below.|$|R
40|$|Historically, each {{generation}} of power plants {{has tended to}} be larger than its predecessor. In the 1980 s, however, the size of newly constructed generating units began to decrease. The relatively small new generating units are usually connected to distribution networks, which are not designed to host power generators. It is expected that distributed generation (DG) will transform distribution networks in the future. This paper discusses the opportunities offered by DG, but also the consequences of increased DG penetration and elaborates {{on some of the}} steps to be taken to facilitate further growth. It is concluded that for a further increase of DG penetration two key issues need to be resolved: new business models need to be developed and implemented and <b>interconnection</b> <b>standards</b> for power and data interfaces need to be further developed and harmonised...|$|R
40|$|AMBA) is {{a widely}} used <b>interconnection</b> <b>standard</b> for SoC design. In order to support {{high-speed}} pipelined data transfers, AMBA supports a rich set of bus signals, making the analysis of AMBA-based embedded systems a challenging proposition. This paper makes two main contributions to the analysis and evaluation of AMBA-based SoC designs. The first contribution {{is to provide a}} method for the performance analysis and evaluation of AMBA-based SoC designs using formal models. This method provides a way to obtain the end-to-end execution bounds of AMBA-based SoC designs, and guarantees the correctness of the results. The second contribution is to use these formal models to prove the functional correctness of the SoC designs. Using our formal models, we were able to uncover an ambiguous case in the AMBA specification that can lead to deadlocks. This case has not been previously documented by methods focused on AMBA protocol verification. Finally, we validate the proposed performance analysis approach by comparing results with a SystemC implementation of a digital camera case study...|$|E
40|$|Approved {{for public}} release; {{distribution}} is unlimitedAvionics architectures are evolving from "Federated" systems consisting of highly specialized black boxes connected together via MIL-STD- 1553 and ARINC 429 data buses to "Integrated" and "Distributed" architectures. These new architectures contain high data-rate sensors, parallel processors, and shared memory {{with high levels}} of integration. These systems require a new interconnection system that overcomes the limitations of older standards. One such interconnection system is Fibre Channel. This thesis evaluates Fibre Channel as avionics <b>interconnection</b> <b>standard.</b> It begins by defining the requirements and measures of performance for an interconnection system suitable for the new avionics architectures. The requirements address technical performance, affordability, reliability, sustainability, and maintainability considerations. The Fibre Channel standards are then compared to the requirements for the avionics interconnection system. In order to perform a technical performance evaluation of a switched fabric avionics interconnection system, a computer simulation model was developed. The OPNET Modeler% tool from OPNET, Inc. was used to model the components of an advanced avionics system. The results of this simulation demonstrated that Fibre Channel meets all the performance requirements of an avionics interconnect[URL] Commander, United States Nav...|$|E
40|$|Thesis (Master's) [...] University of Washington, 2016 - 06 The {{amount of}} {{renewable}} energy and distributed generation is increasing in the distribution network and is changing the network from passive to active. IEEE is currently revising the <b>interconnection</b> <b>Standard</b> 1547 and in its project P 1547 it is anticipated that the new version will include ride through requirements for distributed generation to enhance {{the stability of the}} system. Extending existing Wind and PV models with next generation controls evaluate the effectiveness of these new requirements. The extended PV model is added to an IEEE 34 -node test feeder and the active distribution network’s fault response is compared to the WECC simplified model for distributed PV system used for bulk system stability studies. It was found the draft IEEE P 1547 ride-through requirements increase the amount of PV systems that remain connected post fault. The parameters of the WECC simplified model for distributed PV systems are optimized to match the results from the IEEE- 34 node test system with distributed PV. This allows the active distribution system to be simplified for bulk system stability studies and improves the computational performance...|$|E
40|$|The unique {{operating}} {{profile of}} clean energy supply projects (i. e., renewable and {{combined heat and power}} [CHP]) 43 may require {{different types of}} rates and different rate structures. However, if not properly designed, these additional rates and charges can create unnecessary barriers to the use of renewables and CHP. Appropriate rate design is critical to allow for utility cost recovery while also providing appropriate price signals for clean energy supply. Customer-sited clean energy supply projects are usually interconnected to the power grid and may purchase electricity from or sell to the grid. Electric utilities typically charge these customers special rates for electricity and for services associated with this interconnection. These rates include exit fees, standby rates, and buyback rates. For more information on interconnection, see Section 5. 4, <b>Interconnection</b> <b>Standards...</b>|$|R
50|$|They provide {{extensive}} {{technical documents}} about audio equipment setup and design, including proper grounding, <b>interconnections,</b> noise, measurement <b>standards,</b> a glossary of industry terms, and more.|$|R
30|$|It {{consists}} of a twisted-pair bifilar line with a 100 – 120 Ω characteristic impedance and employs differential signaling, typically carrying baseband non-return-to-zero asynchronous serial data and allowing half-duplex communication. Cheap transceivers allow simple <b>interconnection</b> with <b>standard</b> serial ports found in most microcontrollers, and hundreds of transceivers can {{be connected to the}} same bus.|$|R
