4|12|Public
50|$|Atrium designs have an {{increased}} risk of flooding, so the surrounding land should slope away from the structure on all sides. A drain pipe at the perimeter of the roof edge can help collect and remove additional water. For bermed homes, an <b>interceptor</b> <b>drain</b> at the crest of the berm {{along the edge of the}} roof top is recommended. An interceptor drainage swale in the middle of the berm is also helpful or the back of the berm can be terraced with retaining walls. On sloping sites runoff may cause problems. A drainage swale or gully can be built to divert water around the house, or a gravel filled trench with a drain tile can be installed along with footing drains.|$|E
40|$|Deep {{interceptor}} drains {{are commonly}} used to control canal seepage in southern Alberta, Canada. Recently, shallow grid drainage was introduced. A study was initiated in 1987 to assess the effectiveness of grid drainage to intercept canal and natural groundwater seepage and reclaim the resulting saline affected land. Using a groundwater flow model, MODFLOW, {{it was found that}} a single deep <b>interceptor</b> <b>drain</b> would have failed to intercept all canal seepage and maintain the water table downslope of the canal below the 1. 0 m design water table depth. Conversely, simulations indicated that with a grid drainage system, all canal and natural groundwater seepage would be intercepted and the water table would remain below the design water table depth, with or without irrigation recharge that would maintain a steady state salt balance. The benefits of fall irrigation were demonstrated using three test plots near the canal...|$|E
40|$|The Thurne {{catchment}} in north-east Norfolk, UK, is {{an extremely}} {{important part of the}} Broads National Park, an internationally important wetland environment. Extensive engineered land drainage of the marshes of this low-lying coastal catchment over the past two centuries has led to land subsidence and the need for drainage pumps to control water levels sufficiently below sea-level to maintain agricultural productivity. Consequently, seawater from the North Sea has intruded into the underlying Pleistocene Crag (sand) aquifer and brackish groundwater enters into land drainage channels, thereby raising their salinity. Powerful pumps discharge these brackish drainage waters into a Special Area of Conservation (SAC) and RAMSAR site, leading to adverse ecological impacts on salt-sensitive species. Chloride concentrations within drainage channels throughout the network have been found to significantly vary, with several influential factors affecting channel salinity such as proximity to the sea and connectivity to the underlying aquifer. A thorough understanding of the surface-water/groundwater system and a subsequent quantification of the various processes has been necessary for the development for the drain/aquifer interactions and a numerical groundwater model. These models are used to estimate the long-term distribution of the salinity within the drainage system under current conditions. The model credibility is justified by comparable aquifer-drain water balance, a comparable coast water inflow/ total groundwater ratio and the particle tracking from the coastal reaches trace to previously-measured saline-vulnerable locations. The numerical groundwater model has demonstrated that the average daily inflow of saline groundwater into the Crag aquifer of the Thurne catchment is 3, 081 m 3 /day, of which the HempsteadMarshes main drain {{is one of the main}} conduits for saline inflow into the Brograve system, which discharges directly into the SAC. Various changes to the engineering design or operation of the drainage system have been proposed to minimise the saline inflow to the SAC, but the implementation of any proposals must be considered in conjunction with the current dynamics of the system. Three separate management or engineering remedial measures have been modelled: (i) raising the water levels in the drains of the Hempstead Marshes in the north east of the catchment (ii) lining the main drain of the HempsteadMarshes with low permeability material, and (iii) The construction of a new coastal open ditch drain which is intended to ‘intercept’ the saline intrusion and prevent ingress into inland drains of the Brograve system. The results suggest that raising the water levels in the Hempstead Marshes will reduce the saline inflow into the Brograve sub-catchment substantially, and decrease the overall saline inflow into the Thurne catchment from 3081 m 3 /day to 2822 m 3 /day). The lining of the main drain in Hempstead produces a less than 10 % decrease in saline inflow into the catchment from 3, 081 m 3 /day to 2, 958 m 3 /day. The simulated coastal <b>interceptor</b> <b>drain</b> could in theory through maintaining a low groundwater head near the coast, prevent the inflow of saline groundwater into the Brograve system. However, such a drain would increase the saline inflow across the coastal boundary by around six times (from 3, 081 m 3 /day to 19, 750 m 3 /day), remove large quantities of fresh groundwater from the Pleistocene Crag aquifer and lead to high energy and pumping costs. The research has shown that there are partial solutions to reducing the saline inflow into the drainage systems in this lowland coastal catchment. However, any intended alterations must first consider other potential impacts, such as changes to flood risk, land management restrictions or hydrodynamic effects on the receiving watercourse through changed discharge volumes. EThOS - Electronic Theses Online ServiceGBUnited Kingdo...|$|E
40|$|Recharge to {{the aquifer}} through seepage from {{irrigation}} canals is often quoted {{as one of}} the main causes for waterlogging in Pakistan. In the design of drainage systems to control this waterlogging, rules-of-thumb are often used to quantify the seepage from canals. This paper presents the option to use a groundwater model for a more detailed assessment. Groundwater models may assist in evaluating the effect of recharge reducing measures such as <b>interceptor</b> <b>drains</b> along irrigation canals and lining. These measures are commonly aimed at reducing the drainage requirement of adjacent agricultural lands. In this paper an example is given of the application of a numerical groundwater model, aimed at assessing the effect of interceptor drainage and canal lining in the Fordwah Eastern Sadiqia project, being a typical and well-monitored location in Pakistan. The paper also presents references to other conditions. The model was used to obtain a better insight in the key hydraulic parameters, such as the infiltration resistance of the bed and slopes of irrigation canals, the drain entry resistance of <b>interceptor</b> <b>drains</b> and the hydraulic conductivity of soil layers. The model was applied to assess the effectiveness and efficiency of <b>interceptor</b> <b>drains</b> under various conditions. The results of the study show that the net percentage of intercepted seepage is too low to {{have a significant effect on}} the drainage requirement of the adjacent agricultural lands. Besides, the operation of the system, with pumping required, is often an added headache for the institution responsible for operation of the system. The marginal effect of <b>interceptor</b> <b>drains</b> and lining on the drainage requirement of adjacent agricultural land does not always justify the large investments involved. It can be concluded that: · Use of rules-of-thumb to estimate components of the water balance of irrigation systems in designing drainage can be very misleading; · Interceptor drainage may cause induced seepage from irrigation canals, which is often an order of magnitude more than the net intercepted seepage; · <b>Interceptor</b> <b>drains</b> and canal lining do not significantly reduce the drainage requirements, or in other words, cannot prevent the need for the installation of a drainage system. · A numerical model can aid to evaluate proposed measures and strategies to alleviate water losses and drainage problems. Relevant hydrological concepts and modelling parameters with respect to leakage from irrigation canals and interception by <b>interceptor</b> <b>drains</b> are presented in a separate paper...|$|R
40|$|Recharge to {{the aquifer}} through seepage from {{irrigation}} canals is often quoted {{as one of}} the main causes for waterlogging in Pakistan. In the design of drainage systems to control this waterlogging, rules-of-thumb are often used to quantify the seepage from canals. This paper presents the option to use a groundwater model for a more detailed assessment. Groundwater models can assist in evaluating the effect of recharge reducing measures such as <b>interceptor</b> <b>drains</b> along irrigation canals and lining. These measures are commonly aimed at reducing the drainage requirement of adjacent agricultural lands. In this paper the hydrological concepts with respect to leakage from irrigation canals and interception by <b>interceptor</b> <b>drains</b> are presented. A good understanding of these concepts is critical for the proper application of numerical groundwater models and for the correct quantification of model parameters. Key hydraulic parameters are the infiltration resistance of the bed and slopes of irrigation canals, the drain entry resistance of <b>interceptor</b> <b>drains,</b> hydraulic conductivity and hydraulic resistance of soil layers and equivalent depth of groundwater flow. The paper shows how the hydrological concepts can be transferred into model parameters for the widely used groundwater modelling package MODFLOW. Most concepts, however, can also be applied in other modelling packages. The presented hydrological and modelling concepts have been applied in a numerical model for the Fordwah Eastern Sadiqia project, Pakistan. This model application is reported in a separate paper...|$|R
40|$|Recharge to {{the aquifer}} through seepage from {{irrigation}} canals is often quoted {{as one of}} the main causes for waterlogging in Pakistan. In the design of drainage systems to control this waterlogging, rules-of-thumb are often used to quantify the seepage from canals. This paper presents the option to use a groundwater model for a more detailed assessment. Groundwater models may assist in evaluating the effect of recharge reducing measures such as <b>interceptor</b> <b>drains</b> along irrigation canals and lining. These measures are commonly aimed at reducing the drainage requirement of adjacent agricultural lands...|$|R
40|$|Chapter 1 The Ebro basin is {{situated}} in north-eastern Spain and forms a geographic unit bounded by high mountains. The Bardenas area lies in the Ebro basin and forms part of the Bardenas Alto - Aragón irrigation scheme, {{which was designed to}} make use of the surface water resources from the Pyrenees. Chapter 2 The Ebro basin is a tertiary sedimentation basin in which the Ebro river and its main tributaries have incised alluvial valleys. The tertiary sediments consist mainly of mudstone, locally with interbedded gypsum layers, and very fine siltstone. Both sedimentary rocks are fine textured and, because they were deposited in a brackish lacustrine environment, contain harmful soluble salts. The main landscape-forming processes were erosion, transport, and deposition under semi-arid climatic conditions. The highest parts of the landscape consist of old tertiary formations which form the uplands of a dissected plain. At a lower level mesas occur, which consist of coarse alluvium covering the underlying tertiary sediments. Most of the eroded sediments were removed from the area but local sedimentation also occurred. Owing to the semi-arid conditions, both sediments and salts were deposited. The highest salt concentrations are found in the lowest parts of the alluvial formations, especially where the alluvium was derived from the eroded mudstone and siltstone. Between the residual uplands and the low-lying alluvial formations, piedmont and colluvial slopes occur. Within the Bardenas area ten major physiographic units were defined, each of them subdivided into minor components and indicated on the soil map. The Ebro basin is the driest part of northern Spain. The climate is semi-arid and becomes drier from the borders to the centre of the depression. The seasonal variation in temperature is great. Potential evapotranspiration exceeds total precipitation, which is extremely variable and is not concentrated in distinct rainy seasons. Wind velocity is high and both cold and warm dry winds are common. Evaporation thus occurs even in winter when temperatures are low. A great part of the area is cultivated, so that natural vegetation is restricted to residual and eroded soils not used for agriculture and to salt-affected soils where halophytes grow. Irrigated farming is influenced by soil conditions. Salt-free soils are under full irrigation, the main crops being maize, lucerne, sugar beet, and some horticultural crops. The cropping pattern on the saline soils depends on the degree of salinity. Barley and sugar beet are grown on moderately saline soils and lucerne on succesfully leached soils. On the higher lands, not under the command of the irrigation scheme, barley is grown. Chapter 3 The study area comprises two drainage basins. The northern part drains to the Aragón river, the southern part to the Riguel river, which is a tributary of the Arba river. Drainage and salinity of the groundwater depend on the situation of each geomorphological unit and its relation to adjacent units. The groundwater in the fluvio-colluvial formations of the northern basin is shallow and highly saline. An ephemeral perched water table is found in the mesas, where the groundwater is non-saline. No shallow water table was found in other physiographic units. The irrigation water is of good quality as its EC is at the lower end of the C 2 -range. The SAR is also in the lowest range S 1 and the RSC is zero, so there is no danger of alkalinization. Chapter 4 The physiographic approach was used to prepare the soil map. Each mapping unit is a broad association of soils having similar salinity hazards and possibilities of reclamation. Five main soil associations were distinguished:a) The residual soils of the siltstone outcrops, which have only a thin surface horizon overlying the hard siltstone. b) The soils of the mesas, which consist of a reddish loamy surface horizon overlying semi-consolidated coarse alluvium rich in calcium- carbonate but free of other salts. This in turn overlies the impervious mudstone. Texture and depth of the soil profile vary. Where moderately deep soils occur. a prosperous irrigated agriculture flourishes. c) The soils of the piedmont and colluvial slopes were developed from a mixture of fine colluvium. and material from the underlying tertiary sediments. They are generally deep and fine textured and have an intrinsic, though variable, salinity, increasing with depth. Because of the low permeability and the salinity of the subsoil, the most suitable irrigation method is sprinkling. d) The non-saline soils of the alluvial valleys of the main rivers. Soil conditions vary greatly, but the older terrace soils are usually shallower and less suitable for irrigation than the youngest deeper (alluvial) soils. In general, prosperous irrigated agriculture exists on these soils. e) The saline alluvial and fluvio-colluvial soils of valleys and fans, whose parent material was derived from denudation of the tertiary sediments. Soil conditions and the degree of salinity vary in each mapping unit, and consequently the possibilities of reclamation vary as well. Chapter 5 The source of the salts is the intrinsic salinity of the parent materials and the secondary salinization in water-receiving areas that lack natural drainage. Under irrigation the mobilization and redistribution of salts continues and salinity increases. The saline soils of the area are mainly affected by sodium chloride, a component dominant in all samples. In addition, calcium and magnesium sulphates are found in the northern basin, while in the southern part, calcium and magnesium chlorides predominate over the sulphates. The SAR increases with the rise of EC. Soil alkalinity can therefore be regarded as a reflection of soil salinity since highly saline soils are sodic as well. Non-saline alkali soils were not found and pH-values greater than 8. 5 do not occur. The results of crop tolerance field tests correspond well with the generally accepted levels for salt tolerance. The continued use of the slightly saline soils can be ensured by maintaining the present drainage system of open ditches and interceptor drains, and by keeping the soils under full irrigation. The normal percolation losses associated with basin irrigation will be sufficient to leach the salts from the rootzone. Sprinkler irrigation is suitable for the soils of the slopes, since no levelling is needed and the small water applications reduce the seepage of saline water. The only drainage system required is an <b>interceptor</b> <b>drain</b> between the slope and the adjacent valley. Chapter 6 The saline alluvial soils require reclamation. For this purpose, they must be provided with a drainage system, followed by initial leaching to reduce their salt content. Because there was no local experience with such drainage and desalinization processes, it was decided to conduct an experimental reclamation. Two experimental fields were subsequently selected. The Alera field represents the poorly drained soils of the fluvio-colluvial formations of the northern basin. These are silty-clay soils whose porosity and permeability decrease with depth. Below a depth of 1. 5 m the soil becomes almost impermeable. Salinity increases with depth, reaching values of between 20 and 35 mmhos/cm in the almost impermeable layer. Soil salinity in the surface layer varies. The Valareña field represents the saline soils of alluvial valleys and fans in the southern drainage basin. These are silty clay loam soils showing a marked stratification. At a depth of 2. 5 m, coarse alluvium saturated with very saline groundwater occurs overlying impervious mudstone. Because of stratification, the hydraulic conductivity is highly anisotropic. Soil salinity is more uniformly distributed than in the Alera soils. The reclamation process consisted of the following phases:a) Theoretical design of the drainage system based on hydrological soil properties measured by conventional field methods and on assumed drainage criteria. b) Implementation of the drainage system in the experimental fields. c) Collection of field data, followed by determination of the actual hydrological soil properties and of the drainage criteria. d) Design of the definitive drainage system which will form the basis of recommendations for the reclamation of saline soils with similar conditions. Chapter 7 After a detailed hydropedological survey, a drain spacing of 20 m at a depth of 1. 5 m was calculated for both the Alera and the Valareña drainage systems. Both fields were subsoiled to a depth of 50 cm to improve their low infiltration rates. Piezometers were installed to monitor the water table. Precipitation was measured, as were the amounts of irrigation and drainage water. Soil samples were taken at fixed sites to determine the salinity during the leaching process. Chapter 8 At the Valareña field, water flowed directly into the drain trench through the upper layer of soil, in which the stratification had been disrupted by levelling and subsoiling. Below this layer, there was no percolation of water and therefore no desalinization. These soils cannot be leached merely by the provision of a drainage system but also require deep subsoiling. At the Alera field, unsteady groundwater flow prevailed. At the end of tail recession, flow conditions approached those of steady flow. The discharge/hydraulic head relation had a parabolic shape showing that flow was restricted to the soil above drain level because the drains had been placed just above the impervious layer. The Boussinesq theory was very suitable to study the drainage of the Alera field. At the end of tail recession, if the term for flow below drain level was disregarded, the Hooghoudt equation could be applied. Drainable pore space was determined from the fall of the water table and the amount of drainage water during periods of low evapotranspiration. An average value of 4 per cent was found. The hydraulic conductivity was calculated from the discharge/hydraulic head relation using the Boussinesq and Hooghoudt equations for periods of low evapotranspiration. In general good agreement was found among the values obtained. It could thus be concluded that:- Hydraulic conductivity decreases with depth, becoming negligible below drain level. - The hydraulic conductivity between a depth of 0. 5 m and drain level equals about 0. 6 m/day, and is about 1. 5 m/day in the upper layer. - For high water table conditions, the average hydraulic conductivity of the soil profile is 1 m/day. A comparison of hydraulic conductivity values obtained with field and laboratory methods and those obtained from the discharge/hydraulic head relation showed that:- The results obtained with the auger hole method (K = 0. 2 m/day) were lower than those derived from the discharge/hydraulic head relation. - No satisfactory results were obtained from the inversed auger hole measurements above the water table. - The results obtained from laboratory measurements in undisturbed soil cores showed the anisotropy of the soil. The entrance resistance (W e) of different combinations of drainage and filter materials was calculated from the drain discharge and the head loss of the water table measured in the drain trench (h i). Another method, by which the head loss in the trench was calculated from the shape of the water table was also applied. Both methods gave similar results, yielding the following conclusions:- The W e -values remained fairly constant with time, except for plastic pipes-with an envelope of esparto or coconut fibre for which an increase in W e was observed. - The best combination was clay pipes with a gravel cover (W e = 2 day/m). - Corrugated PVC-pipes with gravel covering and clay pipes without gravel may be used also (W e = 5 day/m). - Corrugated plastic pipes without a filter gave less satisfactory results (W e = 13 day/m). - Plastic pipes with coconut fibre and esparto filters showed an even higher W e than plastic pipes without a filter. - Barley straw is an unsuitable cover material since it rots easily and clogs the pipe. Chapter 9 The desalinization of the Alera field started with an initial leaching, followed by the irrigated cultivation of moderately salt- resistant crops. The leaching efficiency coefficient was determined by comparing the actual desalinization process with theoretical models. Thus the leaching requirement could be predicted for different initial salt contents. To exclude the influence of slightly soluble salts, the desalinization curves were drawn in terms of chloride content. The correlation between chloride percentage and electrical conductivity was high. The following conclusions emerged from the study of the leaching process:- The leaching efficiency coefficient was not constant but increased with depth. - The leaching efficiency coefficient was higher at the beginning of the desalinization process and decreased gradually as the soil became less saline. - The calculated values reflected the differences in soil structure. - An average value of 0. 5 was determined for the upper layer (0 - 50 cm), and a value of 1. 0 for the deeper layer (50 - 100 cm). - The initial salinity was related to soil physical properties (infiltration rate and permeability) which, in turn, were dependent on the compactness of the soil. - For an initial EC e of 15 mmhos/cm, approximately 1000 mm of percolation water are required, which meant 1100 to 1400 mm of irrigation water. The leaching period could last up to 8 months, from early autumn to late May. - Deep subsoiling and local gypsum applications improved the structure of the upper soil layer. - The leaching of saline soils could be split into two phases: an initial leaching of the upper layer, followed by the irrigated cultivation of a moderately salt-resistant crop (sugar beet), during which percolation losses leached the deeper layers. - There was no risk of alkalinization during the leaching period. - To prevent secondary salinization after reclamation, good drainage conditions must be maintained and an irrigated crop rotation practised. Chapter 10 From the relation between the depth of the water table, crop growth, and the mobility of agricultural machinery on the soil, and from a study of the groundwater regime in winter and during the irrigation season drainage criteria for unsteady-state conditions were derived. These criteria were converted to steady-state criteria for easier use in drainage projects. The following conclusions could be drawn from the study:- Little harm is done to winter cereals if a water table remains within a depth of 50 cm, for no more than 3 consecutive days. - With a water table between 75 and 100 cm, sugar beet grows well and is not harmed if a water table is within the top 50 cm for 3 to 4 consecutive days. - Lucerne is more sensitive than sugar beet to high water tables. For good yields, a water table must not remain longer than 3 days within the top 25 cm of soil, 4 or 5 days within the top 50 cm, and 5 or 6 days within the top 75 cm. - A water table depth shallower than 65 cm prevents the movement of machinery and hampers seed-bed preparation in winter. The following drainage criteria were assessed:a) In winter, a water table drawdown from the soil surface to a depth of 0. 65 m in 8 days. b) In the irrigation season, a water table rise of 0. 7 m caused by irrigation losses must be lowered in the 12 days between two consecutive irrigations, and must be deeper than 0. 7 m after 7 days. Applying these criteria in the Boussinesq equation for unsteady flow and using the values for hydraulic conductivity and drainable pore space determined at the experimental field, a spacing of 25 m for drains installed at a depth of 1. 2 m was obtained. Equivalent drainage criteria for steady flow are a minimum depth of 0. 5 m for the unsaturated zone, with a corresponding hydraulic head midway between drains of 0. 7 m and a drain discharge of 3 mm/day. If the entrance resistance was taken into account, the Ernst equation for steady flow and the Hellinga/de Zeeuw equation for unsteady flow could be used in calculating the drain spacing. The results obtained by both approaches agree well and allowed the following conclusions:- For drainage and filter materials with a high entrance resistance, the drain density (m/ha) required becomes twice that needed for materials with low entrance resistance. - Material with high entrance resistance involves much more risk of failure than a wider spacing with good material...|$|E
5000|$|Contamination {{of surface}} waters {{may arise from}} the rinse {{discharging}} to storm drains, which eventually drain to rivers and lakes. Chief pollutants in such wash-water include phosphates; oil and grease; and lead. This is almost exclusively an issue for home/driveway washing, and parking lot style charity washes. Professional carwashing is a [...] "non-point source" [...] of discharge that {{has the ability to}} capture these contaminants, normally in <b>interceptor</b> <b>drains,</b> so the contaminants can be removed before the water enters sanitary systems. (Water and contaminants that enter storm water drains does not undergo treatment, and is released directly into rivers, lakes and streams.) ...|$|R
5000|$|The Central <b>Interceptor</b> (<b>Interceptor</b> Central), <b>draining</b> {{into the}} Emisor Central (Drenaje Profundo) {{and then into}} the Salto River in Hidalgo state near the Requena dam, from where it flows to the Mezquital Valley; and ...|$|R
5000|$|The Western Interceptor (<b>Interceptor</b> del Poniente), <b>draining</b> {{into the}} Nochistongo Channel, which {{ultimately}} joins the Emisor Central; ...|$|R
5000|$|The Eastern Interceptor (<b>Interceptor</b> del Oriente), <b>draining</b> {{into the}} Grand Canal, {{then into the}} old and new tunnels of Tequixquiac and {{ultimately}} to the Salado River.|$|R
40|$|Measurements {{of surface}} runoff from uniform slopes of {{different}} lengths in West Africa {{have shown that}} longer slopes tend to have less runoff per unit of length than short slopes. The main reason for this scale effect is that once the rain stops, water on long slopes has more opportunity time to infiltrate than water on short slopes. A validated simple model is put forward that quantifies the scale effects and predicts under which circumstances they {{can be expected to}} be most significant. An overview is given of management options that are available to farmers to reduce runoff at the field and slope level. The potential effects of these management options on the hydraulic conductivity, K-sat, and Manning's roughness coefficient, n, are qualified. The model is subsequently used to calculate the effect of changes in K-sat and n on the runoff from slopes under rainfall conditions found in West Africa. Finally, two design examples are given, namely maximum field lengths and dimensioning of <b>interceptor</b> <b>drains.</b> (C) 2004 Elsevier B. V. All rights reserved...|$|R