7|25|Public
40|$|Lake Classification Project Could Establish National Water Quality Ranking Procedure From the Director: Profiling the Individuals and Efforts That Comprise the Water Center; Faculty Members Named to Administrative Posts Meet the Faculty: David M. Admiraal; John C. Holz Quality-Assessed Groundwater Pesticide Data Available Online Groundwater Guardians Pesticides Discovered in Ogallala Aquifer According to Recent USGS Study Spring Semester Water Resources Seminar: Social Sciences Affect on Allocation of Water and Natural Resources Nominations Solicited for 2001 Nebraska Water Conference Water News Briefs Congratulations to Our Winners Avoid <b>Fall</b> <b>Irrigation</b> TGF National Award Recipients Our New Look Watch Us on the Web Arsenic Occurrence in Groundwater Illustrated in New USGS Ma...|$|E
40|$|Deep {{interceptor}} drains {{are commonly}} used to control canal seepage in southern Alberta, Canada. Recently, shallow grid drainage was introduced. A study was initiated in 1987 to assess the effectiveness of grid drainage to intercept canal and natural groundwater seepage and reclaim the resulting saline affected land. Using a groundwater flow model, MODFLOW, {{it was found that}} a single deep interceptor drain would have failed to intercept all canal seepage and maintain the water table downslope of the canal below the 1. 0 m design water table depth. Conversely, simulations indicated that with a grid drainage system, all canal and natural groundwater seepage would be intercepted and the water table would remain below the design water table depth, with or without irrigation recharge that would maintain a steady state salt balance. The benefits of <b>fall</b> <b>irrigation</b> were demonstrated using three test plots near the canal...|$|E
40|$|There {{are large}} gaps in our {{understanding}} of the hydrology of forested uplands, wetlands and ponds on the western Boreal Plain region of Canada (Buttle et al. 2005; Devito et al. 2005). Recent climatic conditions have resulted in the drying of ponds and wetlands within this region. The long-term sustainability of these wetland ecosystems likely requires runoff inputs from adjacent upland forest hillslopes. Snowmelt is a critical water source on the Boreal Plain as it comprises 30 – 40 % of annual precipitation inputs, occurs when plant uptake is minimal and may result in runoff over frozen soils. The objective of this research was to examine the potential for snowmelt runoff from forested hillslopes at the Utikuma Research Study Area (URSA) on the Boreal Plain of north central Alberta. To understand the potential for snowmelt runoff in this region, it is necessary to examine the major controls over snowmelt water movement. The variables examined include: aspect (N, S) which controls energy input for melt, soil texture (sand, loam) which influences storage and transmission of water, and frozen soil moisture content (<b>fall</b> <b>irrigation,</b> non-irrigated) which determines the infiltrability of frozen soils. Three sites were chosen (jack pine canopy on sand...|$|E
5000|$|In 1878, {{five years}} after the Modoc Wars, {{residents}} of Linkville formed the [...] "Linkville Water Ditch Company." [...] They dug a low capacity canal that connected their homes with the Link River. A William Steele extended the ditch by 15 miles in 1884. After his death in 1888 the Klamath <b>Falls</b> <b>Irrigation</b> Company took over the canal. It is now known as the Ankeny Canal.|$|R
40|$|We {{estimate}} {{the role of}} private investments in irrigation in farm productivity growth in West Bengal, India between 1982 - 95. Using a state-wide farm panel, we find <b>falling</b> <b>irrigation</b> costs generated significant growth in value added per acre for farms. However, changes in irrigation capacity and costs were stimulated by tenancy registration pro-grams implemented by local governments. This helps account for substantial spillover effects of the tenancy reform on non-tenant farms noted in an earlier study. Hence the West Bengal Green Revolution of the 1980 s benefited from complementarity between private investment incentives and state-led institutional reforms...|$|R
50|$|The city of American Falls {{was first}} platted {{in the early}} 1880s. It was named for the {{waterfall}} on the Snake River near the settlement. During {{the last part of}} the 19th century, privately financed irrigation canals were created to sustain the emerging agriculture industry in southern Idaho and other parts of the west. The Carey act (1894) paved the way for private investment in irrigation projects. By 1895, the American <b>Falls</b> <b>irrigation</b> project came before the Idaho State Land Board. In 1902 the National Reclamation Act was signed into law and federal funds from the sale of public lands became available to create and maintain irrigation projects in the Western United States. The first power plant was built in 1902 on the falls and was acquired by the Idaho Power Company in 1916.|$|R
40|$|SUMMARY. Seepage may be {{prevented}} {{to some extent}} by employing proper methods of irrigation. Overirrigation may {{have a tendency to}} water-log the soil. A small head of water, properly used, will irrigate more land and do better work than a large head gone over the land hurriedly. The distance of irrigation ditches should be such that the water may travel between the ditches in about two hours. If land can be irrigated in the fall with the same care that crops are irrigated in the summer, there is an advantage to <b>fall</b> <b>irrigation.</b> If water cannot be properly cared for and this irrigation is uneven, it is a detriment rather than a benefit to the land. It is a disadvantage to ditch the potatoes as deep on the lighter soils as on the heavier soils. With the exception of the first crop it is best to irrigate alfalfa after the hay is cut. Irrigation of the stubble is more easily and more evenly done than the standing crop. The hay will cure more quickly on the dry soil than on previously irrigated soil. There is no material difference in the yields in sugar beets where the soil is plowed from 4 to 20 inches deep. This {{may be due to the}} fact that the soil is of a sandier nature. The plowing under of a second and third crop of alfalfa has not produced as large tonnage of sugar beets as the second and third crops that were plowed under...|$|E
40|$|Abstract. As {{competition}} builds {{for water}} {{resources in the}} Western U. S., limited irrigation strategies for crop production are emerging to conserve agricultural water for other uses or {{as a way to}} continue to produce crops under reduced water allocations. Alfalfa is a crop with potential for water savings in a limited irrigation system. The objective {{of this study was to}} evaluate potential water saving strategies for alfalfa on the Front Range of Colorado. A field study evaluated four irrigation strategies: Full Irrigation (FI), Stop Irrigation After 2 nd Cutting (S 2), Spring and <b>Fall</b> <b>Irrigation</b> (SF), and Stop Irrigation After 1 st Cutting (S 1). Changes in yield, consumptive water use (ET), water-use efficiency (WUE), stand density, and forage quality were measured. Results of the study showed that yield decreased with ET in a fashion similar to previous research. Over the two year period, average yields were reduced by 3. 1, 3. 5 and 6. 5 Mg ha- 1 compared to the FI treatment for the S 2, SF, and S 1 treatments, respectively. Average ET was reduced by 28. 2, 27. 2, 48. 2 cm compared to the FI treatment for the S 2, SF, and S 1 treatments, respectively. WUE increased as irrigation decreased with an average WUE of 0. 251, 0. 327, 0. 311, and 0. 351 Mg ha- 1 cm- 1 for the FI, S 2, SF, and S 1 treatments, respectively. Also, the number of crowns m- 2 was higher in the S 2 and S 1 treatments compared to the FI and SF treatments. Finally, forage quality increased as ET decreased, which may help economically offset the reduced yield. The limited irrigation of alfalfa is an approach to conserve agricultural water to meet changing water demand while still keeping an irrigated agricultural system in production. 1...|$|E
40|$|Graduation date: 1964 In 1957 three Douglas-fir stands (15 -, 25 -, and 40 -year-old age classes) were {{selected}} {{on a tree}} farm in the Cascade foothills of northwestern Oregon to study factors affecting site productivity. Soil-moisture, soil-temperature and seasonal radial- growth pattern measurements were made with a Colman moisture meter and a dial gauge dendrometer on thinned and unthinned subareas. Soil temperatures were significantly increased by thinning in each stand. This effect decreased with soil depth and increased with increasing intensity of thinning. Root distribution studies eight years after thinning showed that a heavily thinned stand had relatively few roots in the lower profile between the remaining trees, {{in contrast to the}} complete distribution throughout the profile in the unthinned subareas. This would indicate less overall soil-moisture depletion with thinning since the available soil-moisture levels measured within the fully rooted zone were not significantly different for the various thinning treatments. As expected radial growth increased significantly with increasing intensity of thinning. The amount and proportion of late season growth tended to increase with increasing thinning intensity although the observed differences were not statistically significant. Late season growth, however, was significantly increased by increasing crown position (intermediate to dominant) regardless of thinning treatment. Irrigation of selected trees at a ridgetop area extended the spring maximum radial growth rate throughout most of the summer. On comparable non-irrigated trees growth retardation was detectable in the range of one-half to one atmospheres of soil-moisture tension. Growth cessation occurred when soil-moisture-tension values reached the two to five atmosphere range. Irrigation of trees in a young hillside bench stand slightly increased radial growth rate during the first two years, but decreased growth in relation to non-irrigated trees during the next two years apparently as a result of excess irrigation. Fertilization with high rates of nitrogen and phosphorus fertilizers increased the late season radial growth of irrigated and non-irrigated trees in both stands. The late season response is attributed to a dwindling supply of mineralized soil nitrogen in the late summer and early <b>fall.</b> <b>Irrigation</b> and fertilization combined gave approximately additive increases in radial growth which ranged from 35 to 60 percent. It is hypothesized that potential radial growth (except for short periods at the start and end of the growing season) is equivalent to the maximum spring rate. Departures from this maximum result from deficiencies in moisture, mineral nutrient elements, or heat. Thus the maximum growth rate is proposed as an important characteristic, reflecting the potential carbohydrate productive capacity of the crown when raw material levels exceed rate limiting supplies. The fertility status of each research area was assessed by various means including soil chemical and physical analyses, sampling and chemical analyses of forest floor and litter fall material and pot fertility tests. The relative ranking of these areas in terms of fertility was consistent with their site index or productivity rating. Monterey pine and Douglas-fir seedling test plants grown on the potted soils from the different horizons in each profile responded to nitrogen, phosphorus, and sulphur additions. In field tests nitrogen fertilization stimulated radial growth of Douglas-fir whereas phosphorus fertilizer at high application rates resulted in a growth depression...|$|E
50|$|Apart {{from many}} large hydro {{electric}} power plants on the Indravati river, a small power plant of 7.5 MW capacity has been planned {{to utilize the}} head at the Chitrakote <b>falls,</b> though no <b>irrigation</b> is envisaged.|$|R
50|$|Lewis Hinzerling built a {{flour mill}} at Prosser falls in 1887, {{encouraging}} further {{settlement of the}} area. The first irrigation canal was completed in 1893 by the Prosser <b>Falls</b> Land and <b>Irrigation</b> Company. Prosser was officially incorporated in 1899 {{with a population of}} 229 people.|$|R
40|$|Abstract. A major {{conservation}} {{practice in}} the Upper Snake-Rock (USR) watershed is the conversion from furrow irrigation to sprinkler irrigation. We compared the effect of irrigation system type on water quality and quantity at the watershed scale. Six small watersheds (150 - 700 ha) were identified with 5 to 70 % of the cropland sprinkler irrigated and the remaining fields surface or furrow irrigated. Other agricultural land uses, cropping practices and soils were similar among watersheds. Water quality and quantity entering and exiting each watershed were measured with automated samplers during the irrigation season. Irrigation inflow to watersheds and outflow from watersheds did not decrease as sprinkler irrigated area increased. This probably results from the flow rate allocation system used on the Twin <b>Falls</b> <b>irrigation</b> tract. Annual sediment loss (r=- 0. 19, P= 0. 40) and concentration (r=- 0. 38, P= 0. 30) also did not correlate with the relative amount of sprinkler irrigated area. Annual sediment loss (r- 0. 87, P= 0. 03) and concentration (r- 0. 84, P= 0. 05) correlated with irrigation inflow—the more irrigation water delivered to a watershed the greater the outflow sediment concentration and loss. These preliminary results indicate that irrigation water delivery should be managed in addition to converting to sprinkler irrigation to improve water quality in this irrigated watershed...|$|R
40|$|The {{four main}} crops {{produced}} in the Texas High Plains {{have been the subject}} of water management research for several decades by the Texas Agricultural Experiment Station and the USDA/Agricultural Research Service. As expected, experimental results for yield and water use efficiency have varied for these four major crops, but many common principles have likewise emerged from this research. Definite improvements in water use efficiency have been made, and widespread application of these management principles is underway. Limited irrigation is now being widely practiced on drought tolerant crops that take advantage of expected rainfall. A 30 -day period of fairly reliable rainfall occurs from mid-May through mid-June which coincides with sorghum and cotton planting and follows typical corn planting. Sorghum has good ability to adjust to water stress. Sorghum grain requires 13 to 24 inches (330 - 610 mm) of seasonal water use (evapotranspiration) from precipitation, stored soil moisture and irrigation to achieve 3, 000 to 6, 700 pounds per acre (3, 400 - 7, 500 kg/ha) of grain sorghum yield. Dryland sorghum yields average about 1, 600 pounds per acre (1, 800 kg/ha), and yields up to 3, 000 pounds per acre (3, 400 kg/ha) are not uncommon. Peak water use rate is about 0. 30 inches per day (7. 6 mm/day). Irrigations should be timed to avoid water stress during periods of peak water use [...] boot, heading and flowering stages [...] to achieve reasonably good yields and maximum irrigation water use efficiency. Two well-timed seasonal irrigations of 4 inches (100 mm) per irrigation or the equivalent are adequate in normal years for good yields of medium maturity hybrids. Preplant irrigation is often not needed, and the same amount of water may be more efficiently used if applied at later stages of crop growth especially for conventional graded furrow irrigation systems. Conservation tillage can reduce the need for preplant irrigation of sorghum through improved soil moisture storage. Irrigation water use efficiencies may reach 400 - 500 pounds per acre-inch (1. 8 - 2. 2 kg/m 3) with limited but well-timed irrigations as compared to about 200 - 250 pounds per acre-inch (0. 88 - 1. 10 kg/m^ 3) with adequate irrigation. Saving irrigation water by withholding a 4 -inch (100 mm) irrigation reduces sorghum grain yields by only about 10 percent during the early 6 - 8 leaf stage but by almost 50 percent if withheld at the heading and bloom stage. : Corn is much more sensitive to water stress than sorghum, wheat or cotton. Corn is planted earlier than sorghum which typically allows more efficient use of the May-June wet season than for sorghum. However, early planting dates required for corn increases the need for preplant irrigation for stand establishment. Moisture stress caused by low soil water availability or hot, dry conditions during the flowering (tasseling, silking and pollination) stage can severely restrict corn yield. Preplant irrigation is often necessary, and 3 or 4 seasonal irrigations of 4 -inch (100 mm) each are essential for high corn yields in most years in the Texas High Plains. Drought seasons require one or two additional irrigations. Reduced irrigation of corn has generally resulted in significant yield decreases. Irrigation water use efficiency values are usually 250 - 450 pounds per acre-inch (1. 1 - 2. 0 kg/m^ 3) with adequate irrigation, although peak IWUE values of 500 pounds per acre-inch (2. 2 kg/m^ 3) or more have been obtained with limited irrigation in good rainfall seasons. Center pivot irrigation allows frequent irrigations of 1 to 1. 5 inches (25 - 38 mm) during peak water use periods on corn. The total seasonal water use (ET) for corn to achieve any grain yield is about 13 inches (330 mm), while seasonal ET's for peak yields are around 28 - 32 inches per year (710 - 810 mm). Peak ET rates are 0. 3 - 0. 4 inches per day (8 - 10 mm/day), depending upon weather conditions. Planned water deficits into the stress range are feasible only on soils with moderate to high water storage and during the early vegetative or grain ripening stages. Reduced acreage, rather than reduced irrigation, offers the primary way to adjust corn irrigation to limited water supplies. Winter wheat is a major drought tolerant crop with a 9 -month growing season. Wheat grows vegetatively during the drier fall to early spring period and develops grain during a period of increasing spring rainfall. Wheat is normally planted around October 1 and requires available 8011 moisture for germination and early growth, plus perhaps one late <b>fall</b> <b>irrigation</b> followed by 2 to 3 spring irrigations for good production. About one additional early irrigation (and additional applied fertilizer) is needed for early planted wheat that is grazed and also managed for grain production. Seasonal water use is around 26 to 28 inches (660 - 710 mm) for wheat (grain only) yielding 4, 700 - 5, 800 pounds per acre, or 85 - 100 bushels per acre (5, 270 - 6, 500 kg/ha). The highest yield response to irrigation usually occurs during jointing and boot stages (a relatively low rainfall period), during which irrigation water use efficiency values of about 230 pounds per acre-inch (1. 0 kg/m^ 3) are realized from a 4 inch (100 mm) irrigation. Spring irrigations totaling 4 to 12 inches (100 - 305 mm) have resulted in good irrigation water use efficiencies above 170 pounds per acre-inch (0. 75 kg/m^ 3). The least efficient irrigation is during grain filling, where IWUE values have been less than 115 pounds per acre-inch (0. 51 kg/m^ 3), and is associated with increased rainfall. Short wheat varieties in recent tests have exhibited 50 percent higher irrigation water use efficiency values than tall wheat varieties in earlier tests. Wheat yields have been increased in some experiments using no-till, limited tillage, or furrow diking as compared to conventional tillage. Cotton is a drought-tolerant long-season crop that lends itself to limited irrigation despite a somewhat complicated pattern of water use, deficits, and application. Cotton is the major irrigated crop on the Texas High Plains and is second to Wheat in dryland production acreage. Widespread production under limited irrigation has major impact on water demands and the state's water budget. Production, placement, and retention of fruiting sites are sensitive to soil water status. Early fruit set is important. Under dryland conditions, expected lint yields are in the range of 250 to 300 pounds per acre (280 - 336 kg/ha). Cotton requires over 13 inches (330 mm) of seasonal water use to produce good yields, and maximum yields occur at about 27 inches (685 mm) of seasonal water use. High water levels can decrease lint yield through excessive vegetative development and fall immaturity. A preplant irrigation of 4 -inches (100 mm) is usually advantageous especially if spring rainfall is not excessive, but heavier preplant irrigations are not warranted. Cotton has the ability to overcome moisture stress at most growth stages, but the growing season length may not accomodate late-season regrowth. The most critical period for irrigation is early to mid-bloom. If available, a second irrigation should be applied at peak to late bloom. The irrigation cut off date for cotton is mid- to late August. For irrigated cotton, yield results generally favor narrow-row with high plant populations. Irrigation water use efficiencies for cotton have ranged from as little as 20 - 30 pounds per acre-inch (0. 09 - 0. 13 kg/m^ 3) for full irrigation to as high as 80 - 100 pounds per acre-inch (0. 35 - 0. 44 kg/m^ 3) for two well-timed furrow irrigations (preplant and peak bloom) in some experiments. A reasonable target for limited furrow irrigation appears to be 50 pounds per acre-ineh (0. 22 kg/m^ 3). Cotton Irrigated with LEPA Sand drip systems produced around 90 pounds lint per acre-inch (0. 40 kg/m^ 3). Land leveling on slopes of 0. 5 percent or greater have increased yields by more than 100 pounds lint per acre (110 kg/m^ 3) for both furrow irrigated and dryland cotton...|$|E
5|$|Downstream of New Exchequer Dam is McSwain Dam, {{which serves}} as a {{regulating}} forebay for New Exchequer Dam and also generates power. Below this dam is Merced <b>Falls</b> Dam, an <b>irrigation</b> diversion dam. The lowermost, the Crocker-Huffman Diversion Dam, was built in 1906 and completely blocks the passage of anadromous fish up the Merced River.|$|R
5000|$|The {{owners of}} the farm gave {{permission}} for excavation, with the condition that the work be completed before the spring planting. The Hawleys, along with family friends Jerry Mackey and David Luttrell, set out to excavate the Arabia {{during the winter months}} while the water table was at its lowest point. They performed a series of drilling tests to determine the exact location of the hull, then marked the perimeter with powdered chalk. Heavy equipment, including a 100-ton crane, was brought in by both river and road transport during the summer and <b>fall.</b> 20 <b>irrigation</b> pumps were installed around the site to lower the water level and to keep the site from flooding. The 65 ft deep wells removed 20000 gal L per minute from the ground.|$|R
2500|$|Washington ranks {{second in}} the United States in the {{production}} of wine, behind only California. By 2006, the state had over [...] of vineyards, a harvest of [...] of grapes, and exports going to over 40 countries around the world from the 600 wineries located in the state. While there are some viticultural activities in the cooler, wetter western half of the state, the majority (99%) of wine grape production takes place in the desert-like eastern half. The rain shadow of the Cascade Range leaves the Columbia River Basin with around [...] of annual rain <b>fall,</b> making <b>irrigation</b> and water rights of paramount interest to the Washington wine industry. Viticulture in the state is also influenced by long sunlight hours (on average, two more hours a day than in California during the growing season) and consistent temperatures.|$|R
50|$|The {{bridge is}} named after The Beebe Orchard Company which built the first bridge, a {{reinforced}} concrete tower suspension bridge, in 1919, over the Columbia River at Chelan <b>Falls</b> to carry <b>irrigation</b> water in two 12-inch water flumes from springs {{on the west side}} to their orchards {{on the east side of}} the river. The Beebe Bridge was the first suspension bridge in Washington State, was completed at a cost of $75,000, and was, at the time, the largest privately built and owned bridge in the world.|$|R
50|$|The {{sinks and}} the lower courses of both rivers are within {{the land of the}} Idaho National Laboratory, {{northeast}} of Craters of the Moon. Water from both rivers emerges about 100 mi away at Thousand Springs near Hagerman and other springs downstream of Twin <b>Falls.</b> Due to <b>irrigation</b> using the aquifer's water, most of the rivers' water is pumped out of the ground, used to irrigate crops, and returned to the ground as irrigation drainage, where it eventually emerges at the springs and joins the Snake River.|$|R
2500|$|Washington wine is wine {{produced}} from grape varieties {{grown in the}} U.S. state of Washington. Washington ranks second in the United States (behind California) {{in the production of}} wine. By 2011, the state had over [...] of vineyards, a harvest of [...] of grapes, and exports going to over 40 countries around the world from the 850+ wineries located in the state. While there are some viticultural activities in the cooler, wetter western half of the state, the majority (99.9%) of wine grape production takes place in the shrub-steppe eastern half. The rain shadow of the Cascade Range leaves the Columbia River Basin with around [...] of annual rain <b>fall,</b> making <b>irrigation</b> and water rights of paramount interest to the Washington wine industry. Viticulture in the state is also influenced by long sunlight hours (on average, two more hours a day than in California during the growing season) and consistent temperatures.|$|R
500|$|Río San José {{no longer}} exists, having <b>fallen</b> prey to <b>irrigation</b> projects, and touristic {{development}} of its estuary {{has resulted in}} pollution. Biologists working {{in the area in}} 1979 and from 1991 to 1993 failed to find O.peninsulae, casting doubt on its continued existence. The lack of records for over a century, small distribution, and destruction of the only known habitat led Carleton and Arroyo-Cabrales to consider the conservation status of O.peninsulae as [...] "critically endangered, if not extinct". They noted that the status of the species had previously been obscured because it had been lumped for decades with O.couesi, a widely distributed and secure species.|$|R
40|$|When rain <b>falls</b> on an <b>irrigation</b> district, it is {{possible}} lo reduce intake rate for the district from a river. This paper examines the relation of intake rate !o rainfall in Meiji irrigation district. The relation of these tow factores in a five days' average makes up nearly an inverse proportion line. The relation has not resultcd from saving intake for irrigation but preventing flood in the urban parts of the irrigation district by the intake rate management office. Gekerally speaking, the water suply system for paddy fields has many canals and branches. Without high quality information and organization for water management, {{it is difficult to}} use rainfall for intake rate saving...|$|R
40|$|This Highlight {{reports on}} the trip, which {{included}} a field visit to newly-modernized Shijin irrigation system in Hebei province. If the Shijin system is any guide, three elements of China?s irrigation modernization strategy are: [a] total rehabilitation of old, earthen systems into modern, lined canals for high-efficiency irrigation; [b] institutional reform of irrigation management; and [c] total recovery of irrigation fees levied at rates varying from USD 70 to 400 /ha. On all these fronts, canal irrigation in India has much ground to cover: the systems are <b>falling</b> apart; the <b>irrigation</b> institutions have declined; and most states fail to recover even token irrigation service fees (ISF). China presents a bold contrast to the Indian scene on irrigation reform...|$|R
2500|$|The Salmon Falls Creek valley was an {{important}} trading route through which the Shoshone Indians in the Snake River Plain and the Paiute in the Great Basin interacted. The first Europeans to see the creek were likely fur trappers from the British Hudson's Bay Company traveling through {{the area in the}} early 19th century. In the early 1900s a canal system was built to supply irrigation water to Idaho's Magic Valley and the city of Twin Falls was incorporated in 1905. The first proposal to dam the nearby Salmon <b>Falls</b> Creek for <b>irrigation</b> was in 1909, and surmised that an additional [...] of farm land could thusly be brought into production. The Salmon Falls Dam was built in 1906 and raised in 1934. However, the water supply was less than originally expected, and only [...] ended up being developed.|$|R