4962|10000|Public
2500|$|Finite Element {{programs}} are more flexible in design (triangular elements vs. the block elements most finite difference models use) {{and there are}} some programs available (SUTRA, a 2D or 3D density-dependent flow model by the USGS; Hydrus, a commercial unsaturated flow model; FEFLOW, a commercial modelling environment for subsurface flow, solute and heat transport processes; OpenGeoSys, a scientific open-source project for thermo-hydro-mechanical-chemical (THMC) processes in porous and fractured media; COMSOL Multiphysics (FEMLAB) a commercial general modelling environment), FEATool Multiphysics, an easy to use Matlab simulation toolbox, and Integrated Water Flow Model (IWFM), but they are still not as popular in with practicing hydrogeologists as MODFLOW is. [...] <b>Finite</b> <b>element</b> <b>models</b> are more popular in university and laboratory environments, where specialized models solve non-standard forms of the flow equation (unsaturated flow, density dependent flow, coupled heat and groundwater flow, etc.) ...|$|E
50|$|<b>Finite</b> <b>element</b> <b>models</b> (FEM) are {{nowadays}} used {{to calculate}} complex structures and mechanical systems. Since the grown calculation capacity of computers {{makes it possible to}} make more and more detailed <b>finite</b> <b>element</b> <b>models,</b> the file output of these programs can be enormous. It can be so large that you need to post process this data. Postprocessing may be defined as the “art of results representation”.|$|E
50|$|Mechanical {{testing of}} the {{individual}} components or complete structure is carried out on a Universal Testing Machine. Test carried out include tensile, compression, flexure, fatigue, impact, compression after impact. Before testing the component, aerospace engineers build <b>finite</b> <b>element</b> <b>models</b> to simulate the reality.|$|E
40|$|This paper {{addresses}} the formulation and numerical efficiency of various numerical models of different nonconserving time integrators for studying wave propagation in nonlinear hyperelastic waveguides. The study includes different nonlinear <b>finite</b> <b>element</b> formulations based on standard Galerkin <b>finite</b> <b>element</b> <b>model,</b> time domain spectral <b>finite</b> <b>element</b> <b>model,</b> Taylor-Galerkin <b>finite</b> <b>element</b> <b>model,</b> generalized Galerkin <b>finite</b> <b>element</b> <b>model</b> and frequency domain spectral <b>finite</b> <b>element</b> <b>model.</b> A comparative {{study on the}} computational efficiency of these different models is made using a hyperelastic rod model, and the optimal computational scheme is identified. The identified scheme is then used to study the propagation of transverse and longitudinal waves in a Timoshenko beam with Murnaghan material nonlinearity...|$|R
40|$|AbstractFinite <b>element</b> <b>model</b> {{updating}} is {{the important}} foundation of structural damage detection, condition assessment for engineering structure. A new method for <b>finite</b> <b>element</b> <b>model</b> updating based on the quasi-static generalized influence line (QSGIL) residual objection is presented to update the <b>finite</b> <b>element</b> <b>model</b> {{in order to improve}} the quality of <b>finite</b> <b>element</b> algorithm. The experimental study shows that the method can efficiently update the <b>finite</b> <b>element</b> <b>model...</b>|$|R
40|$|AbstractIn {{this paper}} we develop an {{efficient}} numerical method for the <b>finite</b> <b>element</b> <b>model</b> updating of damped gyroscopic systems. This model updating of damped gyroscopic systems is proposed {{to incorporate the}} measured modal data into the <b>finite</b> <b>element</b> <b>model</b> to produce an adjusted <b>finite</b> <b>element</b> <b>model</b> on the damping and gyroscopic matrices that closely match the experimental modal data...|$|R
50|$|Different {{models have}} been {{developed}} over time, including macro-models, vertical line element models, finite-element models, and multi-layer models. More recently, fiber-section beam-columns elements have become popular, as they can model most of the global response and failure modes properly, while avoiding sophistications associated with <b>finite</b> <b>element</b> <b>models.</b>|$|E
5000|$|We can {{classify}} ocean models {{according to}} different standards, for example, according to vertical ordinates we have geo-potential, isopycnal and topography-following model, according to horizontal discretizations we have unstaggered, staggered grid, according to methods of approximation we have finite difference and <b>finite</b> <b>element</b> <b>models.</b> There are three basic types of OGCMs.|$|E
50|$|The FEA module of SimScale {{uses the}} {{open-source}} codes / solvers Code_Aster and CalculiX. These codes allow linear and nonlinear static/dynamic analysis of structures. Code_Aster is used simulations involving fatigue, damage, fracture, contact, geomaterials, porous media, multi-physics coupling and more. CalculiX has similar functionalities allowing users to build, calculate and post-process <b>finite</b> <b>element</b> <b>models.</b>|$|E
40|$|Based on {{the white}} body’s <b>finite</b> <b>element</b> <b>model,</b> the dynamic {{response}} <b>finite</b> <b>element</b> <b>model</b> of TJ 7100 car created with MSC. Patran and MSC. Nastran. The body response power spectral density (PSD) is calculated under real road PSD and compared with test result. The <b>finite</b> <b>element</b> <b>model</b> is reliable and {{can be applied to}} car response evaluation...|$|R
40|$|Abstract. The <b>finite</b> <b>element</b> <b>model</b> was {{established}} for the test model of the plate- column-light steel structure according to the application of SAP 2000 and the seismic wave was input in the model, through the analysis of earthquake response, the analysis data of the <b>finite</b> <b>element</b> <b>model</b> {{was close to the}} results of the test data,so the <b>finite</b> <b>element</b> <b>model</b> was reasonable...|$|R
40|$|Abstract. Appling {{the contact}} theory The <b>finite</b> <b>element</b> <b>model</b> of L 1 -L 5 segment was {{established}} with self-compiled software and Hyper Mesh. Based on the spine CT continuous images of L 1 -L 5 {{segments of the}} healthy volunteer, the three-dimensional <b>finite</b> <b>elements</b> <b>model</b> of L 1 -L 5 vertebrae structure was constructed by the combination of self-compiled software and Hyper Mesh. endplates and joint cartilage intervertebral disc and ligament structure were also simulated. Between {{the high and low}} articular processes adopts the surface- surface contact theory to carry on processing. The three-dimensional <b>finite</b> <b>element</b> <b>model</b> was built structure integrity，with good geometric similarity. The results of the <b>finite</b> <b>element</b> <b>model</b> were matched to the results of the vitro experiment of biomechanics. The use of self-compiled software and Hyper Mesh can improve the <b>finite</b> <b>element</b> <b>model</b> of lumbar motion segment building speed and accuracy, the introduction of contact theory <b>finite</b> <b>element</b> <b>model</b> can improve the reliability and auteenticity...|$|R
50|$|Also, {{included}} in the ADINA suite of programs is a graphical user interface (known as the ADINA User Interface, or AUI) with a solid modeler, ADINA-M, for the pre- and post-processing tasks. The AUI {{can be used to}} import solid models, and <b>finite</b> <b>element</b> <b>models</b> in Nastran format, providing an interface to many CAD and CAE packages.|$|E
50|$|The Flight Dynamics library {{enables the}} rapid modeling, {{simulation}} {{and analysis of}} the flight dynamic characteristics {{of a wide range of}} aircraft and UAVs. Actuators for flight control and other subsystems use the Brushless DC Drives and Electrified Powertrains libraries. Flexible beams and modal bodies from <b>Finite</b> <b>Element</b> <b>models</b> are managed by the Flexible Bodies library.|$|E
5000|$|Modeling {{techniques}} have been progressively updated {{during the last}} two decades, moving from linear static to nonlinear dynamic, enabling more realistic representation of global behavior, and different failure modes. Different modeling techniques shear walls span from macro models such as modified beam-column elements, to micro models such as 3D <b>finite</b> <b>element</b> <b>models.</b> An appropriate modeling technique should: ...|$|E
40|$|This paper proposes the {{response}} surface method for <b>finite</b> <b>element</b> <b>model</b> updating. The response surface method is implemented by approximating the <b>finite</b> <b>element</b> <b>model</b> surface response equation by a multi-layer perceptron. The updated {{parameters of the}} <b>finite</b> <b>element</b> <b>model</b> were calculated using genetic algorithm by optimizing the surface response equation. The proposed method was compared to the existing methods that use simulated annealing or genetic algorithm together with a full <b>finite</b> <b>element</b> <b>model</b> for <b>finite</b> <b>element</b> <b>model</b> updating. The proposed method was tested on an unsymmetri-cal H-shaped structure. It was observed that the proposed method gave the updated natural frequen-cies and mode shapes that were of the same order of accuracy as those given by simulated annealing and genetic algorithm. Furthermore, {{it was observed that}} {{the response}} surface method achieved these results at a computational speed that was more than 2. 5 times as fast as the genetic algorithm and a full <b>finite</b> <b>element</b> <b>model</b> and 24 times faster than the simulated annealing. Comment: 9 page...|$|R
40|$|<b>Finite</b> <b>element</b> <b>model</b> {{updating}} of quadratic eigenvalue problems (QEPs) {{is proposed}} by Friswell, Inman and Pilkey 1998, {{to incorporate the}} measured model data into the <b>finite</b> <b>element</b> <b>model</b> to produce an adjusted <b>finite</b> <b>element</b> <b>model</b> on the damping and stiffness that closely match the experimental modal data. In this paper, we mainly develop an efficient numerical method for the <b>finite</b> <b>element</b> <b>model</b> updating of QEPs which needs only O(nk 2) flops and is stored in a sparse technique, where n {{is the size of}} coefficient matrices of the QEP and k is the number of the measured eigenpairs...|$|R
30|$|At first, a <b>finite</b> <b>element</b> <b>model</b> is {{developed}} for laser bending of magnesium alloy M 1 A sheet. The <b>finite</b> <b>element</b> <b>model</b> {{is used to}} simulate the laser bending process for various set of process conditions.|$|R
50|$|There are {{a number}} of {{alternative}} definitions of CTOD. The two most common definitions, CTOD is the displacement at the original crack tip and the 90 degree intercept. The latter definition was suggested by Rice and is commonly used to infer CTOD in <b>finite</b> <b>element</b> <b>models</b> of such. Note that these two definitions are equivalent if the crack tip blunts in a semicircle.|$|E
5000|$|DUSC 2015 {{is made of}} a carbon-fibre monocoque, {{resulting}} in a design significantly lighter than a conventional steel chassis. In order to design the monocoque, extensive finite element analysis was conducted upon the structure to ensure its ability to withstand collisions. Furthermore, a series of extensive experiments were conducted in order to verify <b>finite</b> <b>element</b> <b>models</b> of the carbon layup.|$|E
50|$|If a {{model is}} too complex or {{too large to}} be {{simulated}} in a reasonable time, mathematical techniques can be utilized to simplify the model. For instance, model order reduction gives an approximate model, which has a lower accuracy but can be computed in a shorter time.Reduced order models {{can be obtained from}} <b>finite</b> <b>element</b> <b>models,</b> and have been successfully used for system-level simulation of MEMS.|$|E
40|$|Drilling is {{the most}} common {{machining}} process whereby the operation involves making round holes in metallic and nonmetallic materials. Metal drilling operations are quite complex and usually complicated. Nevertheless, knowledge about metal drilling process related to using <b>Finite</b> <b>Element</b> <b>Model</b> in literature is quite limited reported. In this study, a Lagrangian Incremental <b>Finite</b> <b>Element</b> <b>Model</b> selected for the metal drilling process. The drilling force and torque values were obtained using <b>Finite</b> <b>Element</b> <b>Model</b> for AISI 1040 workpiece material. A comparison presented between the drilling force and torque values which are obtained by measured and <b>Finite</b> <b>Element</b> <b>Model,</b> and then a good agreement found between measured and predicted force and torque values...|$|R
40|$|In this paper, we {{continue}} our paper [7] to develop an efficient numerical algorithm for the <b>finite</b> <b>element</b> <b>model</b> updating of quadratic eigenvalue problems (QEPs). This model updating of QEPs is proposed to incorporate the measured model data into the <b>finite</b> <b>element</b> <b>model</b> to produce an adjusted <b>finite</b> <b>element</b> <b>model</b> on the mass, damping and stiffness that closely match the experimental modal data, where the updated mass matrix is ensured to be symmetric positive definite...|$|R
40|$|Abstract. This paper {{presents}} automated <b>finite</b> <b>element</b> <b>modeling</b> {{method and}} application to a biomechanical study. The modeling method produces a <b>finite</b> <b>element</b> <b>model</b> {{based on the}} multi-sliced image data adaptively controlling the element size according to complexity of local bony shape. The method realizes a compact and precise <b>finite</b> <b>element</b> <b>model</b> with a desired total number of nodal points. This paper challenges to apply this method to a human skull because of its intricate structure. To accomplish {{the application of the}} human skull, we analyze characteristics of bony shape for a mandible and a skull. Using the analytical results, we demonstrate that the proposed modeling method successfully generates a precise <b>finite</b> <b>element</b> <b>model</b> of the skull with fine structures...|$|R
50|$|Time domain {{simulations}} compute workpiece and {{tool position}} on very small time scales without great sacrifice in {{accuracy of the}} instability process and of the surface modeled. These models need more computing resources than stability lobe models, but give greater freedom (cutting laws, runout, ploughing, <b>finite</b> <b>element</b> <b>models).</b> Time domain simulations are quite difficult to robustify, {{but a lot of}} work is being done in this direction in the research laboratories.|$|E
5000|$|... where vector [...] (mass times {{acceleration}} vector) collects the inertia {{forces at}} the nodes, [...] collects the external nodal loads, and [...] collects the internal resisting {{forces from the}} deformation of the material. M is a diagonal matrix of the nodal masses. Each vector (u, v, a, F, etc.) has dimension 6 times {{the total number of}} nodes in the crash model (about 6 million “degrees of freedom” for every 1 million [...] "nodes" [...] in 3-D thin shell <b>finite</b> <b>element</b> <b>models).</b>|$|E
5000|$|In {{the years}} 1970 {{attempts}} were made to simulate car crash events with non-linear spring-mass systems after calibration, which require as an input the results of physical destructive laboratory tests, needed to determine the mechanical crushing behavior of each spring component of the modeled system. [...] "First principle" [...] simulations like more elaborate <b>finite</b> <b>element</b> <b>models,</b> however, need only the definition of the structural geometry and the basic material properties (rheology of car body steel, glass, plastic parts, etc.) as an input to generate the numerical model.|$|E
40|$|Abstract. Co-continuous ceramic {{composites}} have {{a complicated}} topology structure {{which makes it}} much more difficult for <b>finite</b> <b>element</b> <b>model</b> reconstruction. In this paper, the two-dimensional co-continuous ceramic composites <b>finite</b> <b>element</b> <b>model</b> is reconstructed by a modified quartet structure generation set method which modified the generation parameters based on quartet structure generation set (QSGS) method, and a numerical simulation at high strain rate is accomplished. The content mainly contains: (1) The distribution features of metal phase and ceramic phase of real co-continuous ceramic composites SEM image is calculated by mathematical statistics to determine the parameters that control the reconstruction such as volume fraction, core distribution probability and directional growth probability; (2) Two phase volume fraction and 2 -point correlation function of the reconstructed <b>finite</b> <b>element</b> <b>model</b> is calculated as the quality assessment parameters, which verify the reconstructed <b>finite</b> <b>element</b> <b>model</b> are in allowable error range compared with the real SEM image; (3) Numerical simulation at high strain rate is carried out using the reconstructed <b>finite</b> <b>element</b> <b>model.</b> The failure behavior of co-continuous ceramic composites at high strain rate is analyzed, validates the reconstructed <b>finite</b> <b>element</b> <b>model</b> meets the requirements of numerical calculation. 1...|$|R
40|$|Abstract: Acording to {{the fact}} that the <b>finite</b> <b>element</b> <b>model</b> of {{electromagnetic}} vibration shaker for virtual experiment is not accurate enough to complete accurately spacecraft test, made a correlation analysis of the <b>finite</b> <b>element</b> output frequency response function and the measured frequency response function by their correlation coefficients. Analyzed the sensitivity of the materials for FRF and screened the parameters to update, made the correlation coefficient error of electromagnetic vibration shaker <b>finite</b> <b>element</b> <b>model</b> frequency response function and the measured as the optimization objective, the optimization and modification of shaker <b>finite</b> <b>element</b> <b>model</b> parameters were completed by iteration method. The frequency response function of the modified <b>finite</b> <b>element</b> <b>model</b> approximately agreed with the experimental frequency response function. It met the virtual experiments of electromagnetic vibration shaker...|$|R
40|$|AbstractA <b>finite</b> <b>element</b> {{parametric}} <b>modeling</b> {{method of}} aircraft wing structures is proposed {{in this paper}} because of time-consuming characteristics of <b>finite</b> <b>element</b> analysis pre-processing. The main research is positioned during the preliminary design phase of aircraft structures. A knowledge-driven system of fast <b>finite</b> <b>element</b> <b>modeling</b> is built. Based on this method, employing a template parametric technique, knowledge including design methods, rules, and expert experience {{in the process of}} modeling is encapsulated and a <b>finite</b> <b>element</b> <b>model</b> is established automatically, which greatly improves the speed, accuracy, and standardization degree of modeling. Skeleton model, geometric mesh <b>model,</b> and <b>finite</b> <b>element</b> <b>model</b> including <b>finite</b> <b>element</b> mesh and property data are established on parametric description and automatic update. The outcomes of research show that the method settles a series of problems of parameter association and model update in the process of <b>finite</b> <b>element</b> <b>modeling</b> which establishes a key technical basis for <b>finite</b> <b>element</b> parametric analysis and optimization design...|$|R
50|$|Femap (Finite Element Modeling And Postprocessing) is an {{engineering}} analysis program sold by Siemens PLM Software {{that is used}} to build <b>finite</b> <b>element</b> <b>models</b> of complex engineering problems ("pre-processing") and view solution results ("post-processing"). It runs on Microsoft Windows and provides CAD import, modeling and meshing tools to create a finite element model, as well as postprocessing functionality that allows mechanical engineers to interpret analysis results. The finite element method allows engineers to virtually model components, assemblies, or systems to determine behavior under a given set of boundary conditions, and is typically used in the design process to reduce costly prototyping and testing, evaluate differing designs and materials, and for structural optimization to reduce weight.|$|E
50|$|Design {{research}} and development of the finalized design was completed by NAL from October 2012 to September 2014. The R&D efforts led to the current configuration of the aircraft and a structurally efficient wings layout with four bending attachment brackets and two shear attachment brackets. For the AMCA, structural design, analysis and size optimization was carried out to cater for all critical symmetric and un-symmetric load cases. <b>Finite</b> <b>element</b> <b>models</b> were built separately for each of the fuselage segments and then integrated to build a full fuselage finite element model which also incorporated a new design for the air intakes, a key element to maintain the aircraft's stealth characteristics. Project definition phase was fully completed by February 2014.|$|E
5000|$|The {{state-of-the-art}} of {{the research}} on shear bands is that the phenomenon is well understood from the theoretical [...] and experimental [...] point of view and available constitutive models give nice qualitative predictions, although quantitative predictions are often poor. Moreover, great progresses have been made on numerical simulations, so that shear band nucleation and propagation in relatively complex situations can be traced numerically with <b>finite</b> <b>element</b> <b>models,</b> although still at the cost of a great computational effort. Of further interest are simulations that reveal the crystallographic orientation dependence of shear banding in single crystal and polycrystals. These simulations show that certain orientations are much more prone to undergo shear localization than others.|$|E
40|$|In this study, fist the {{temperature}} distribution along the consumable wire was simulated using a two-dimensional <b>finite</b> <b>element</b> <b>model</b> and then, average temperature of melt droplet was calculated using temperature gradient and thermal balance equation in solid/liquid interface. Next, {{the results of}} <b>finite</b> <b>element</b> <b>modeling</b> were compared with the semi-empirical model and experimental data. The results showed that when welding current led to globular mode of metal transfer, the presented <b>finite</b> <b>element</b> <b>model</b> was in good agreement with experimental data...|$|R
40|$|This paper {{details the}} process of {{modeling}} and importing the model into FEA for the spun structure of the BS 376 spacecraft. Engineering drawings were converted into 3 D models using Pro/Engineer and then imported and into Patran for pre-processing of a <b>Finite</b> <b>Element</b> <b>Model.</b> To verify the <b>Finite</b> <b>Element</b> <b>Model,</b> several test cases were set up and solved using Nastran solver. Our simple load cases {{were found to be}} in congruence with analytical solution methods validating the <b>finite</b> <b>element</b> <b>model...</b>|$|R
40|$|Two {{simplified}} impact models {{which could}} be used in conjunction with <b>finite</b> <b>element</b> <b>modeling</b> of impacted structures are considered. The two methods are: a previously developed localized <b>finite</b> <b>element</b> impulse-momentum procedure for nondissipative impacts, and a simple gap element consisting of a parallel linear spring and damper useful in dissipative impacts. Results are presented for axial impact of an initially stationary rod. Impulse-momentum theory used in conjunction with <b>finite</b> <b>element</b> <b>modeling</b> was found to result in energy variations unrelated to physical behavior; these variations are reduced as the <b>finite</b> <b>element</b> <b>model</b> is refined...|$|R
