85|67|Public
5000|$|MODFLOW-OWHM (version 1.00.00, September 15, 2014), The One-Water <b>Hydrologic</b> <b>Flow</b> Model (MODFLOW-OWHM, MF-OWHM or MODFLOW-ONE), is {{a fusion}} of {{multiple}} versions of MODFLOW (NWT, LGR, FMP, SWR, SWI) into ONE version, contains upgrades and new features and allows the simulation of head-dependent flows, flow-dependent flows, and deformation dependent flows that collectively affect conjunctive use of water resources and provides an online input guide ...|$|E
50|$|GWB reads {{datasets}} of {{thermodynamic equilibrium}} constants (most commonly compiled from 0 to 300 °C along the steam saturation curve) {{with which it}} can calculate chemical equilibria. Thermodynamic datasets from other popular programs like PHREEQC, WATEQ4F, and Visual MINTEQ have been formatted for the GWB, enabling comparison and validation of the different codes. The program K2GWB (log K to GWB) was written to generate thermodynamic data for GWB under pressures and temperatures {{beyond the limits of}} the default datasets. The GWB can couple chemical reaction with hydrologic transport to produce simulations known as reactive transport models. GWB can calculate flow fields dynamically, or import flow fields as numeric data or calculated directly from the USGS <b>hydrologic</b> <b>flow</b> code MODFLOW.|$|E
40|$|The medium-(10 m DEM) and fine-resolution data (1 m DEM) had the {{smallest}} {{differences between the}} <b>hydrologic</b> <b>flow</b> path and straight-line path: median differences in path length of 20 m for both the 1 m and 10 m DEMs, and 51 m for the 30 m DEM. <b>Hydrologic</b> <b>flow</b> paths were significantly longer than straight-line paths for all three scales; BMP placement based on straight-line distances {{may not be the}} most effective. Although the overall difference was significantly positive, calculations on the 30 m DEMs sometimes produced straight-line paths that were longer than the <b>hydrologic</b> <b>flow</b> paths, apparently due to inaccuracies in the data. Where fine-scale DEMs are available, BMPs might be more effectively situated by considering the corresponding drainage pathways. The very different results produced at the three scales demonstrate that using the finest-grained elevation data may substantially improve placement of BMPs intended to mitigate for heavy animal use areas. The use of 30 m DEMs for this purpose should be avoided. Fine-grained data such as 1 m-resolution LiDAR-derived DEMs are available for Pennsylvania through PAMAP, and can be incorporated in the planning stages of BMP placement ultimately resulting in reducing agricultural sediment and nutrient loadings into local watersheds and the Chesapeake Bay...|$|E
40|$|Abstract: WEHY model takes a new {{approach}} to the modeling of hydrologic processes in order to account for the effect of heterogeneity within natural watersheds. Toward this purpose, the point-scale conservation equations for various hydrologic processes were upscaled in order to obtain their ensemble averaged forms at the scale of the computational grid areas. Over hillslopes these grid areas correspond to areas along a complete transect of a hillslope. The resulting upscaled conservation equations, although they are fundamentally one-dimensional, have the lateral source/sink terms that link them dynamically to other hydrologic component processes. In this manner, these upscaled equations possess the dynamic interaction feature of the standard point scale two dimensional hydrologic conservation equations. A significant computational economy is achieved by the capability of the upscaled equations to compute <b>hydrologic</b> <b>flows</b> over large transactional grid areas versus the necessity of computing <b>hydrologic</b> <b>flows</b> over small grid areas by point-scale equations in order to account for the effect of environmental heterogeneity on flows. The emerging parameters in the upscaled hydrologic conservation equations are areal averages and areal variances/covariances of the original point-scale parameters, thereby quantifying the spatial variation of the original point-scale parameters over a computational grid area, and, thus, the effect of land heterogeneity on <b>hydrologic</b> <b>flows.</b> Also, by requiring only areal average and areal variance/covariance of paramete...|$|R
30|$|Degradation {{of water}} quality, {{property}} damage and potential {{loss of life}} due to flooding is caused by extreme rainfall events. Historic rainfall event statistics (in terms of intensity, duration, and return period) are used to design flood protection structures, and many other civil engineering structures involving <b>hydrologic</b> <b>flows</b> (McCuen 1998; Prodanovic and Simonovic 2007).|$|R
40|$|The Patuxent Landscape Model (PLM) is {{designed}} to simulate fundamental ecological processes on the watershed scale, in interaction with an economic component that predicts the land use patterns. The paper focuses on the ecological component of the PLM and describes how the spatial and structural rescaling can be instrumental for calibration of complex spatially distributed models. The PLM is based on a modified General Ecosystem Model (GEM) that is replicated across a grid of cells that compose the rasterized landscape. Different habitats and land use types translate into different parameter sets to be fed into GEM. Cells are linked by horizontal fluxes of material and information, driven mostly by the <b>hydrologic</b> <b>flows.</b> This approach provides additional flexibility in scaling up and down over a range of spatial resolutions and is essential to track the land use change patterns generated by the economic component. Structural modularity is another important feature that is implemented in the general purpose software packages (Spatial Modeling Environment and Collaborative Modeling Environment), that the PLM employs. Ó 1999 Elsevier Science Ltd. All rights reserved...|$|R
40|$|The spatio-temporal {{processes}} that describe <b>hydrologic</b> <b>flow</b> - {{the movement of}} water {{above and below the}} surface of the Earth [...] are currently underrepresented in formal semantic representations of the water domain. This paper analyses basic flow processes in the hydrology domain and systematically studies the hydrogeological entities, such as different rock and water bodies, the ground surface or subsurface zones, that participate in them. It identifies the source and goal entities and the transported water (the theme) as common participants in <b>hydrologic</b> <b>flow</b> and constructs a taxonomy of different flow patterns based on differences in source and goal participants. The taxonomy and related concepts are axiomatized in first-order logic as refinements of DOLCE 2 ̆ 7 s participation relation and reusing hydrogeological concepts from the Hydro Foundational Ontology (HyFO). The formalization further enhances HyFO and contributes to improved knowledge integration in the hydrology domain...|$|E
40|$|ABSTRACT: A hydrogeomorphic {{classification}} scheme for Great Lakes coastal wetlands is presented. The classification is hierarchical and first divides the wetlands into three broad hydrogeomorphic sys-tems, lacustrine, riverine, and barrier-protected, each with unique <b>hydrologic</b> <b>flow</b> characteristics and residence time. These systems are further subdivided into finer geomorphic types based on physical fea-tures and shoreline processes. Each hydrogeomorphic wetland type has associated plant and anima...|$|E
40|$|The {{purpose of}} this study is to examine {{potential}} ground water contamination by seepage from buried tailings under four alternatives of clay liners and tailings placement, which have been proposed for possible use at the Morton Ranch Site. To accomplish this comparison of alternatives, laboratory work and numerous measurements were made on materials typical of the Morton Ranch Site. These measurements provide the soil characteristics necessary for input to the <b>hydrologic</b> <b>flow</b> and transport models...|$|E
40|$|Wildland fire is {{a natural}} {{disturbance}} that affects the distribution and abun-dance of native fishes in the Rocky Mountain West (Rieman and others 2003). Fire can remove riparian vegetation, increasing direct solar radiation to the stream surface and leading to warmer summer water temperatures (fig. 1). Fire can also consume vegetation and organic biomass on the forest floor, chang-ing <b>hydrologic</b> <b>flows,</b> stream qual-ity, and fish habitat suitability. Many native fish species, such as bull trout (Salvelinus confluentus) and cutthroat trout (Oncorhynchus clarkii), have evolved with fire, and their populations are resilient to fire’s effects given adequate con-nectivity to robust population segments elsewhere in a basin. This resiliency, however, has been reduced in many watersheds through stream habitat loss and degradation and the invasion of nonnative fishes (e. g., brook trout, Salvelinus fontinalis, and brown trout, Salmo trutta) that better tol-erate warmer water temperatures and threaten native fish persistence through displacement and hybrid-ization. Forecasting {{the long-term effects of}} climate change and fire on water temperatures and native fish popu-lations requires an understanding of fire dynamics—the size, distri-bution, frequency, and severity of Fire and Fish dynamics in a changing climat...|$|R
40|$|Abstract Floods are {{the most}} common and {{widespread}} climate-related hazard on Earth. Flood forecasting can reduce the death toll associated with floods. Satellites offer effective and economical means for calculating areal rainfall estimates in sparsely gauged regions. However, satellite-based rainfall estimates have had limited use in flood forecasting and <b>hydrologic</b> stream <b>flow</b> modeling because the rainfall estimates were considered to be unreliable. In this study we present the calibration and validation results from a spatially distributed hydrologic model driven by daily satellite-based estimates of rainfall fo...|$|R
40|$|This report, {{prepared}} by Hydro Geo Chem staff for Los Alamos National Laboratory, summarizes work {{conducted by the}} company under Subcontract 9 -XG 1 -N 3993 - 1. The ultimate objective of this work is to characterize the movement of subsurface water {{in the vicinity of}} Yucca Mountain, Nevada. Data produced under this contract is to be used by the US Department of Energy in its Yucca Mountain Site Characterization Project (YMP) to help determine <b>hydrologic</b> <b>flows</b> that may affect the performance of a potential nuclear waste repository. The data may be used in the licensing proceedings, and certain quality assurance procedures have thus been required. The work has focussed on measuring the distribution of environmental tracers-chlorine- 36, chlorine, and bromine-and on evaluating the depth to which these conservative solutes have percolated in the unsaturated zone at Yucca Mountain. The following discussion summarizes progress made on the tasks outlined in the original Scope of Work. Details of this work and all data acquired by Hydro Geo Chem for this subcontract have been systematically organized in logbooks and laboratory notebooks. These documents have been structured to make it easy to trace the analytical history of a sample, from time of receipt to the final analytical results...|$|R
40|$|Understanding the {{connectivity}} between terrestrial {{and aquatic}} systems is important {{when attempting to}} address current and future forest management issues. Little {{is known about the}} effects of forest harvesting on the chemistry of non-fishbearing headwater streams in lowland Western Washington and how this harvesting affects downstream salmonids. The near-stream/saturated zone, where hillslope <b>hydrologic</b> <b>flow</b> paths and saturated soil meet, has vital biogeochemical nitrogen cycles. This study will address this biogeochemical cycle, specifically the rate of nitrogen mineralization in the headwater stream riparian zones. ...|$|E
40|$|Models used in {{performance}} assessment and site characterization {{activities related to}} nuclear waste disposal rely on simplified representations of solute/rock interactions, <b>hydrologic</b> <b>flow</b> field and the material properties of the rock layers surrounding the repository. A crucial element {{in the design of}} these models is the validity of these simplifying assumptions. An intermediate-scale experiment is being carried out at the Experimental Engineered Test Facility at Los Alamos Laboratory by the Los Alamos and Sandia National Laboratories to develop a strategy to validate key geochemical and hydrological assumptions {{in performance}} assessment models used by the Yucca Mountain Site Characterization Project...|$|E
40|$|The {{extent of}} {{weathering}} incongruency during soil formation from rock controls local carbon and nutrient cycling in ecosystems, {{as well as}} the evolution of <b>hydrologic</b> <b>flow</b> paths. Prior studies of basalt weathering, including those that have quantified the dynamics of well-mixed, bench-scale laboratory reactors or characterized the structure and integrated response of field systems, indicate a strong influence of system scale on weathering rate and trajectory. For example, integrated catchment response tends to produce lower weathering rates than do well mixed reactors, but the mechanisms underlying these disparities remain unclear. Here we present pore water geochemistry and physical sensor data gathered during two controlled rainfall-runoff events on a large-scale convergent model hillslope mantled with 1 m uniform depth of granular basaltic porous media. The dense sampler and sensor array (1488 samplers and sensors embedded in 330 m(3) of basalt) showed that rainfall-induced dissolution of basaltic glass produced supersaturation of pore waters with respect to multiple secondary solids including allophane, gibbsite, ferrihydrite, birnessite and calcite. The spatial distribution of saturation state was heterogeneous, suggesting an accumulation of solutes leading to precipitation of secondary solids along <b>hydrologic</b> <b>flow</b> paths. Rapid dissolution of primary silicates was widespread throughout the entire hillslope, irrespective of up-gradient flowpath length. However, coherent spatial variations in solution chemistry and saturation indices were observed in depth profiles and between distinct topographic regions of the hillslope. Colloids (110 - 2000 nm) enriched in iron (Fe), aluminum (Al), and phosphorus (P) were mobile in soil pore waters...|$|E
40|$|This study {{investigated}} the diving behaviour and performance of the bimodally respiring turtle Elseya albagula within the Burnett River, central Qld, Australia. Diving parameters were recorded using pressure-sensitive time-depth recorders for turtles residing within a free flowing versus regulated reach. Maximum submergence time recorded for El. albagula (greater than 3 hours) is among the longest recorded for a voluntarily diving vertebrate, and is attributed to the turtle 2 ̆ 7 s ability to respire aquatically. Median dive times logged for El. albagula within the regulated reach (6. 7 min) were threefold longer than values recorded for turtles residing within a naturally flowing creek (1. 9 min), with discrepancies in dive duration possibly due to the variable <b>hydrologic</b> <b>flows</b> recorded below the weir. No correlation was observed between dive duration and subsequent surfacing intervals, suggesting that dives remained aerobic throughout the study. Despite considerable differences in the magnitude and daily variation of water flow between the two locations, similar diel activity and surfacing trends were recorded for El. albagula. Turtles undertook deep resting dives (> 1. 5 m) during the day before moving into shallower habitats (< 1. 0 m) for the night, while the crepuscular hours were characterized by elevated surfacing frequencies attributed to periods of increased activity possibly associated with foraging...|$|R
5000|$|Observations of hydrologic {{processes}} {{are used to}} make predictions of the future behaviour of <b>hydrologic</b> systems (water <b>flow,</b> water quality). One of the major current concerns in hydrologic research is [...] "Prediction in Ungauged Basins" [...] (PUB), i.e. in basins where no or only very few data exist.|$|R
40|$|Disturbance in {{riparian}} {{areas of}} semiarid ecosystems involves complex interactions of pulsed <b>hydrologic</b> <b>flows,</b> herbivory, fire, climatic effects, and anthropogenic influences. We resampled riparian vegetation within ten 10 -m × 100 -m plots that were initially sampled in 1992 in 4 watersheds of the Snake Range, east central Nevada. Our finding of significantly lower coverage of grasses, forbs, and shrubs within plots in 2001 compared with 1992 was {{not consistent with}} the management decision to remove livestock grazing from the watersheds in 1999. Change over time in cover of life-forms or bare ground was not predicted by scat counts within plots in 2001. Cover results were also not well explained by variability between the 2 sampling periods in either density of native herbivores or annual precipitation. In contrast, Engelmann spruce (Picea engelmannii) exhibited reduced abundance at all but the highest-elevation plot in which it occurred in 1992, and the magnitude of change in abundance was strongly predicted by plot elevation. Abundance of white fir (Abies concolor) individuals increased while aspen (Populus tremuloides) individuals decreased at 4 of 5 sites where they were sympatric, and changes in abundance in the 2 species were negatively correlated across those sites. Utility of monitoring data to detect change over time and contribute to adaptive management will vary with sample size, observer bias, use of repeatable or published methods, and precision of measurements, among other factors...|$|R
30|$|Freshwater lakes {{are one of}} {{the most}} {{extensively}} altered ecosystems on earth due to changes of climate, <b>hydrologic</b> <b>flow</b> and human activities related processes, such as land-use and nutrient inputs (Carpenter et al. 2011). Lake sediments are important grounds for series of biogeochemical transformations of essential nutrients (carbon, nitrogen and phosphorus) and contaminants (Nealson 1997; Bouskill et al. 2010). Sediment microorganisms, especially bacteria, play a dominant role in these critical processes. Bacteria-mediated transformations in sediments lead to active exchange of energy and materials with the water column and intimately connect sedimentary processes with diverse aquatic ecosystem functions (Ranjard et al. 2000; Urakawa et al. 2000).|$|E
40|$|The U. S. Geological Survey (USGS) Topographic Science Program {{includes}} {{research and}} applications {{that result in}} improved seamless topographic datasets, advanced elevation technology research, raster and vector technique development research, and development of internet presence. Users can access the USGS National Elevation Dataset (NED), currently the highest-resolution, best quality elevation data available across the United States (raster format); Elevation Resources for National Applications (EDNA), a multi-layered database derived from a version of NED which has been hydrologically conditioned for improved <b>hydrologic</b> <b>flow</b> representation; and information on LIDAR data research, other research and datasets, and links to related publications. Educational levels: High school, Undergraduate lower division, Undergraduate upper division, Graduate or professional...|$|E
40|$|Animal {{agriculture}} in the Spring Creek watershed of central Pennsylvania contributes sediment to the stream and ultimately to the Chesapeake Bay. Best Management Practices (BMPs) such as stream bank buffers are intended to intercept sediment moving from heavy-use areas toward the stream. The placement of BMPs on a farm is generally based on untested assumptions about flow paths. Most often, a straight-line distance from the heavy-use area to the stream {{is assumed to be}} correct. Our objective was to compare the straight-line path to <b>hydrologic</b> <b>flow</b> paths calculated from fine-, medium- and coarse-grained Digital Elevation Models (DEMs; 1 m, 10 m, 30 m) for 471 mapped heavy-use points within 100 m of the stream. The 30 m DEMs are the most widely available and require the least processing time. We anticipated that the flow path distance would be longer than the straight-line distance in all cases, that the finest resolution would lead to the most accurate measurement, but that the difference might not be great enough to justify the increased costs. Understanding the changes in path length and direction calculated using more complex methods and higher-resolution source data will enable us to make recommendations on methods to be used in developing conservation management plans. Results/Conclusions The medium-(10 m DEM) and fine-resolution data (1 m DEM) had the smallest differences between the <b>hydrologic</b> <b>flow</b> path and straight-line path: median differences in path length of 20 m for both the 1 m and 10 m DEMs, and 51 m for th...|$|E
40|$|The {{effects of}} {{development}} and the uncertainty of a changing climate in eastern Africa pose myriad challenges for water managers along the Blue Nile. Sudan's large irrigation potential, hydroelectric dams, and prime location within the basin mean that Sudan's water management decisions will have great social, economic and political implications for the region. At the same time, Sudan's water use options are constrained by tradeoffs between upstream irrigation developments and downstream hydropower facilities {{as well as by}} the country's commitments under existing or future transboundary water sharing agreements. Here, we present a model that can be applied to evaluate optimal allocation of surface water resources to irrigation and hydropower in the Sudanese portion of the Blue Nile. Hydrologic inputs are combined with agronomic and economic inputs to formulate an optimization model within the General Algebraic Modeling System (GAMS). A sensitivity analysis is performed by testing model response to a range of economic conditions and to changes in the volume and timing of <b>hydrologic</b> <b>flows.</b> Results indicate that changing hydroclimate inputs have the capacity to greatly influence the productivity of Sudan's water resource infrastructure. Results also show that the economically optimal volume of water consumption, and thus the importance of existing treaty constraints, is sensitive to the perceived value of agriculture relative to electricity as well as to changing hydrological conditions...|$|R
40|$|Aims The {{field of}} ecohydrology is {{providing}} new theoretical frameworks and methodological approaches {{for understanding the}} complex interactions and feedbacks between vegetation and <b>hydrologic</b> <b>flows</b> at multiple scales. Here we review {{some of the major}} scientific and technological advances in ecohydrology as related to understanding the mechanisms by which plant–water relations influence water fluxes at ecosystem, watershed and landscape scales. Important Findings We identify several cross-cutting themes related to the role of plant– water relations in the ecohydrological literature, including the contrasting dynamics of water-limited and water-abundant ecosystems, transferring information about water fluxes across scales, understanding spatiotemporal heterogeneity and complexity, ecohydrological triggers associated with threshold behavior and shifts between alternative stable states and the need for long-term data sets at multiple scales. We then show how these themes are embedded within three key research areas where improved understanding of the linkages between plant–water relations and the hydrologic cycle have led to important advances in the field of ecohydrology: upscaling water fluxes from the leaf to the watershed and landscape, effects of plant–soil interactions on soil moisture dynamics and controls exerted by plant water use patterns and mechanisms on streamflow regime. In particular, we highlight several pressing environmental challenges facing society today where ecohydrology can contribute to the scientific knowledge for developing sound management and policy solutions. We conclude by identifying key challenges and opportunities for advancing contributions of plant–water relations research to ecohydrology in the future...|$|R
40|$|Anthropogenic {{activities}} in New England salt marshes have altered <b>hydrologic</b> <b>flows</b> in various ways, but unintended consequences from {{some types of}} habitat modifications have received little attention. Specifically, ditches have existed on salt marshes for decades, but {{the effects of these}} hydrologic alterations are only poorly understood. Ditch-plugging is a more recent methodology used for salt marsh habitat enhancement and mosquito control, but the long-term effects from this management practice are also unclear. The interactions involving marsh surface elevation, soil characteristics, and hydrologic regimes result in feedbacks that regulate the salt marsh self-maintenance process, and these interactions vary with hydrologic modification. Using natural tidal creeks and pools as controls, we examined the effects of ditching and plugging, respectively, on hydrology, surface elevations, and soils. Results showed the most apparent effects of altered hydrology from ditching are prolonged pore-water retention in the rooting zone and significantly lower soil bulk density and mineral content when compared with natural creek habitat. From a management perspective, the important question is whether the combined alterations to physical and biological processes will hinder the marsh’s ability to keep pace with increasing rates of sea level rise, especially in more heavily ditched marshes. In contrast, ditch-plugging results in the decoupling of feedback processes that promote salt marsh self-maintenance and in doing so, threatens marsh stability and resilience to climate change. High surface water levels, permanently saturated soils, marsh subsidence, and significantly lower bulk density, carbon storage, soil strength, and redox levels associated with hydrologic alterations from ditch-plugging all support this conclusion...|$|R
40|$|Abstract: There are {{currently}} few sensor systems capable of measuring soil parameters at multiple points in space over time consistently and economically, and without disrupting {{activities at the}} land surface. We have developed prototype nodes of a wireless sensor network for agricultural monitoring and management. The underground nodes are capable of transmitting soil measurements of moisture at scheduled intervals. Reliable communication can be established over 20 - 30 meters range {{at the rate of}} 256 bits/second that is more that adequate for the application. The calculated battery life based on the energy usage per transmission is estimated over 3 years which are sufficient for long-term real-time monitoring. The data from a network of these sensors could be used to vastly improve agriculture management and environmental protection practices through a more accurate modeling of crop-growth, <b>hydrologic</b> <b>flow,</b> and carbon-nutrient cycling processes...|$|E
40|$|Heat {{released}} by the radioactive decay of high level nuclear waste in an underground repository causes a long-terra thermal disturbance in the <b>hydrologic</b> <b>flow</b> field. Moisture transport through unsaturated fractured rock {{in the presence of}} this imposed temperature field will presumably be dominated by the vapor phase. Non-isothermal vapor transfer is investigated for the simplified case of a single unsaturated horizontal rock fracture. Analytic solutions for heat transfer, rock matrix water flow, and gravity drainage are solved numerically. The resulting temperature and moisture regime is then indirectly coupled to a Galerkin finite element solution for Fickian water vapor diffusion through the diffusion coefficient for water vapor in air, the vapor density gradient and the source/sink term. The results demonstrate the importance of temperature and vapor diffusion with regard to evaporation/condensation, micro-fracture drainage and the production of dry and wet zones in a fracture...|$|E
40|$|This chapter {{summarizes}} {{data collection}} and model calculations through FY 95 under Study Plan 8. 3. 1. 8. 1. 2 Physical Processes of Magmatism and Effects on the Potential Repository. The focus of this study plan is to gather information that ultimately constrains the consequences of small-volume, basaltic magmatic activity at or near a potential repository. This is then combined with event probability estimates, described elsewhere in this synthesis report, to yield a magmatic risk assessment. Tere are two basic classes of effects of magmatisms that are considered here: (1) Eruptive effects, whereby rising magma intersects a potential repository, entrains radioactive waste, and erupts it onto the earth`s surface. (2) Subsurface effects, which includes {{a wide range of}} processes such as hydrothermal flow, alteration of mineral assemblages in the potential repository system, and alteration of <b>hydrologic</b> <b>flow</b> properties of the rocks surrounding a potential repository...|$|E