6|27|Public
40|$|The {{dewatering}} {{operation in}} the “Piaski ” open-pit is planned from 2008 {{and it will be}} finished in 2036. The <b>dewatering</b> <b>well</b> barriers system will be applied. Based on the quasi 3 D two-layered numerical model with area of 1550 km 2, groundwater flow system for premining and mining conditions using MODFLOW was constructed. Except the time of dewatering, the most important factors deciding on the range of the cone of depression are increase of effective infiltration, specific yield and storativity. These factors can’t be estimated based on the premining model, so it is necessary to use reliable data from other areas of mine operations...|$|E
40|$|In the {{framework}} of Mo. S. E. project {{for the protection of}} Venice against exceptional high tides, the development of Treporti (Lido's inlet) and Ca' Roman (Chioggia's inlet) harbours in the Venice Lagoon required the realization of two provisional sea basins, positioned below the sea level, which have been isolated with impermeable barriers and then drained with <b>dewatering</b> <b>well</b> systems to ensure their accessibility. These basins are now used to build the concrete lodging caissons of mobile barriers, and will be reopen after their installation. Two networks of piezometers (25 and 2 respectively) have been installed to monitor the impact of dewatering on the first and second aquifer levels close to the constructions sites. Hydraulic heads and groundwater electrical conductivity profiles are continuously measured. The anthropogenic impact on groundwater is determined by comparing the time series of hydraulic heads with the natural driving forces (rainfall, evapotranspiration, tidal oscillations) acting on the aquifers. After five years of monitoring activities, it has been ascertained in both sites that no depletion of the phreatic aquifer has been produced by dewatering pumping; in the confined one, instead, a depression cone is observed around the dewatered basin. The impermeable barrier isolated a portion of the phreatic aquifer, resulting in a progressive groundwater desalinization. Electrical conductivity profiles show that seawater intrusion has not been enhanced by construction work...|$|E
40|$|Due to the {{character}} of the original source materials and the nature of batch digitization, quality control issues may be present in this document. Please report any quality issues you encounter to digital@library. tamu. edu, referencing the URI of the item. Includes bibliographical references. Ground-water monitoring is the primary method used to protect our ground-water resources. The primary objectives of monitoring programs are to detect, to attribute, and to mitigate any changes in-water quality or quantity. Previous monitoring programs have had numerous problems including the failure to produce usable information and the failure to balance the competing factors of cost-effectiveness and environmental protection. A cost-effective, environmentally-responsive ground-water procedure was designed which consists of eight steps and two feedback loops. The reason for monitoring must first be determined before clear monitoring goals can be set. Characterization of the site allows proper design of the monitoring network. Data is then collected and analyzed creating usable information. Applying this new information to the information expansion loop permits {{a better understanding of the}} initial site characterization. Finally evaluating the entire routine to determine the effectiveness of the program allows the optimization loop to modify the system for greater efficiency. The value of this procedure was tested at selected sites in the Gibbons Creek Lignite Mine in Grimes County, Texas. The mine, which is currently in compliance with state regulations, is not operating an efficient monitoring program. The problems included over-monitoring of metals in and around reclaimed mine blocks, over-monitoring by monitoring wells in the same aquifer, and the failure to attribute changes in a monitoring well near a <b>dewatering</b> <b>well.</b> The feedback loops helped to optimize the entire program by recognizing problems in the stratigraphic column and modifying the monitoring program to lower monitoring costs. Three major benefits are gained by using this procedure: the ground-water monitoring routine can be made more cost-effective, environmental protection will be increased, and environmental liability will be decreased...|$|E
50|$|On June 27, {{officials}} said 12 of 70 planned <b>dewatering</b> <b>wells</b> at Eppley Airfield in Omaha were functional. The wells pump water collecting around the airport over the levee wall {{back into the}} Missouri River.|$|R
25|$|Construction of {{the tunnel}} began in October 1998 with the {{excavation}} of the Gilman Portal and dewatering work at the two intermediate shafts. Tunnel excavation was carried out from November 1999 through July 2001 using a shielded TBM. Construction {{of the tunnel}} included many challenges. The TBM had to bore its way through diverse ground conditions consisting of weak sedimentary rocks; strong, fractured metamorphic rocks; and alluvium, {{all of which were}} below the groundwater table. Special measures such as probing and grouting ahead of the TBM and, in particular, deep <b>dewatering</b> <b>wells,</b> were demonstrated to be effective for controlling adverse ground conditions. The project also showed the advantage of working from a portal. The Gilman Portal site proved to be ideal, supporting very efficient mining and muck disposal operations and also allowing long pipe sections to be installed in the tunnel, significantly reducing the amount of field welding required.|$|R
40|$|The {{following}} paper {{discusses the}} hydrogeologic investigation, groundwater modeling effort, {{and design of}} an optimized pit dewatering system for the proposed Gold Reserve Incorporated Brisas del Cuyuni Concession gold and copper mine in southeast Venezuela. This dewatering design presented some unique challenges due {{to the size of}} the pit and the climate of the region. The objective of this evaluation was to design a dewatering system for a 2. 2 square kilometer pit, with special consideration for dewatering unstable clay-rich saprolite pit slopes, in an area that receives over three meters of rain a year. Using a MODFLOW-SURFACT groundwater model, an optimized dewatering system was designed that uses a combination of permanent <b>dewatering</b> <b>wells,</b> in-pit temporary wells, and in-pit sumps. The result is a dewatering system which not only dewaters a final pit influx of 350 liters/second of groundwater, but also has the required flexibility over the life of the mine to conform to a dynamic mine plan and challenging hydrogeologic conditions. In addition, on-going work utilizes the groundwater model to predict pit lake filling times and the steady-state interaction between the pit lake and the regional system...|$|R
40|$|Fluid flow {{characteristics}} of cleat systems in coalbed methane reservoirs are crucial in reservoir management and field development plans. This paper aims {{to evaluate the}} cleat system properties including cleat porosity, permeability, and aperture {{as well as the}} impact of permeability growth on production performance in the Bandanna Coal Formation of the Fairview Field, eastern Queensland. Owing to the presence of bad hole conditions and poor core recovery of the coal intervals, the petrophysical well logs and laboratory measurements cannot be used as a source of information for this purpose. Hence, a new approach is employed that utilises early water production data to measure water in place and absolute permeability of the coal. In addition, micro-computed tomography (CT) scan method is used to investigate the cleat system that is preserved in a core sample and results are compared with the ones obtained by analysis of production data. Cleat system evaluation by analysis of production data and micro-CT scan technique provides a comprehensive approach that brings confidence in measurements and helps to obtain cleat properties at the sufficient scale for reservoir engineering purposes. The necessary information including production data and core samples are collected from a <b>dewatering</b> <b>well</b> and the nearby observation well in the study area. Analysis of early water production data (single-phase flow) indicates that coal permeability is 189 mD and the average cleat porosity is approximately 5 %. High cleat porosity describes the large volume of water produced {{over the life of the}} study well. The 3 D model of the fossilised cleat system constructed by the micro-CT scan method reveals that coal is well-cleated and cleat spacing and mean cleat aperture are 4 and 0. 136 mm, respectively. The average cleat porosity that is measured by the micro-CT scan method is 5. 7 %, which is fairly close to the cleat porosity measured by analysis of production data. Production data analysis indicates that effective permeability to gas starts to grow at the midlife of the well and it strongly controls the shape of the production profile. The results of this study help in future field development and infill drilling programs in the Fairview Field and provide important insights into cleat system of Bandanna Coal Formation. Z. Yarmohammadtooski, A. Salmachi, A. White and M. Rajab...|$|E
40|$|The Continental {{porphyry}} Cu‐Mo mine, located 2 km east of {{the famous}} Berkeley Pit lake of Butte, Montana, contains two small lakes that vary in size depending on mining activity. In contrast to the acidic Berkeley Pit lake, the Continental Pit waters have near-neutral pH and relatively low metal concentrations. The main reason is geological: whereas the Berkeley Pit mined highly‐altered granite rich in pyrite with no neutralizing potential, the Continental Pit is mining weakly‐altered granite with lower pyrite concentrations and up to 1 ‐ 2 % hydrothermal calcite. The {{purpose of this study}} was to gather and interpret information that bears on the chemistry of surface water and groundwater in the active Continental Pit. Pre‐existing chemistry data from sampling of the Continental Pit were compiled from the Montana Bureau of Mines and Geology and Montana Department of Environmental Quality records. In addition, in March of 2013, new water samples were collected from the mine’s main <b>dewatering</b> <b>well,</b> the Sarsfield well, and a nearby acidic seep (Pavilion Seep) and analyzed for trace metals and several stable isotopes, including dD and d 18 O of water, d 13 C of dissolved inorganic carbon, and d 34 S of dissolved sulfate. In December 2013, several soil samples were collected from the shore of the frozen pit lake and surrounding area. The soil samples were analyzed using X‐ray diffraction to determine mineral content. Based on Visual Minteq modeling, water in the Continental Pit lake is near equilibrium with a number of carbonate, sulfate, and molybdate minerals, including calcite, dolomite, rhodochrosite (MnCO 3), brochantite (CuSO 4 · 3 Cu(OH) 2), malachite (Cu 2 CO 3 (OH) 2), hydrozincite (Zn 5 (CO 3) 2 (OH) 6), gypsum, and powellite (CaMoO 4). The fact that these minerals are close to equilibrium suggests that they are present on the weathered mine walls and/or in the sediment of the surface water ponds. X‐Ray Diffraction (XRD) analysis of the pond “beach” sample failed to show any discrete metal‐bearing phases. One of the soil samples collected higher in the mine, near an area of active weathering of chalcocite‐rich ore, contained over 50 % chalcanthite (CuSO 4 · 5 H 2 O). This water‐soluble copper salt is easily dissolved in water, and is probably a major source of copper to the pond and underlying groundwater system. However, concentrations of copper in the latter are probably controlled by other, less‐soluble minerals, such as brochantite or malachite. Although the acidity of the Pavilion Seep is high (~ 11 meq/L), the flow is much less than the Sarsfield Well at the current time. Thus, the pH, major and minor element chemistry in the Continental Pit lakes are buffered by calcite and other carbonate minerals. For the Continental Pit waters to become acidic, the influx of acidic seepage (e. g., Pavilion Seep) would need to increase substantially over its present volume...|$|E
40|$|Chemical Fe-clogging is a {{major factor}} {{strongly}} interfering with the performance of vertical filter wells. All over the world, groundwater is pumped by means of vertical filter wells to locally dewater aquifers for mining or construction purposes or to reliably meet daily demand for drinking water. Especially considering the increase in global population, rising production of natural soil resources and rapidly increasing demand for high quality drinking water, a sustainably high performance of vertical filter wells is essential from an economic as well as ecological point of view. In this dissertation, the influence of different gravel materials and well operation concepts on the performance of open-pit dewatering wells in the Rhenish lignite mining district in Germany was assessed in an experimental laboratory approach. Special focus was laid on long-term elution and chemical Fe-clogging affinity of different filter pack materials and the distribution of chemical Fe-clogging products, when aeration of the screen pipe in a <b>dewatering</b> <b>well</b> is avoided. Long-term elution and release of different (semi-) metals from different gravel materials were evaluated with column experiments, whereas for evaluation of the affinity towards chemical Fe-clogging, a combined hydraulic and hydrochemical experimental model of a well filter section was developed and optimised. With the experimental Fe-clogging model, the relevant parameters that controlled the progression of chemical Fe-clogging were identified. The affinity towards chemical Fe-clogging of different gravel materials was evaluated in comparison to that of artificially produced glass beads. Apart from these material tests, the influence of screen pipe aeration was evaluated by application of a shortened screen pipe. For comparison, spatial distribution and temporal development of Fe(III) -precipitation was additionally calculated by a computed hydrochemical model of kinetic Fe(II) -oxidation with the hydrogeochemical modelling programme PhreeqC. Varying the input data of the computed model allowed for a sensitivity analysis of the hydrochemistry applied in the experimental model. Further comparison of type and spatial distribution of the Fe-clogging products produced in the experimental model was possible by samples taken from the gravel pack of wells in the field that had been excavated during succession of the open-pit Garzweiler. Chemical Fe-clogging in the model was found to exclusively develop in the unsaturated zone of the gravel pack and the screen pipe. In rough agreement with the hydrogeochemical PhreeqC-model, the highest Fe-clogging-intensity in the gravel pack was concentrated close to the boundary of the aquifer. This was due to unsaturated, vertical flow components {{in the vicinity of the}} material boundary. Similar distributions of the Fe-clogging zones were observed during field sampling. Intense Fe-clogging was found to be heterogeneously distributed in zones of unsaturated vertical flow that allowed mixing with the gaseous phase, as well as homogeneously distributed in zones of water level fluctuations. Fine-grained muddy or dusty plumes of Fe-precipitations on the inner surface of screen tubes in the field were found to be products of biological Fe-clogging that had been strictly excluded in the experimental model. Mineralogical analyses revealed Fe-encrustations produced in the experimental model to be of higher crystallinity than those sampled in the field. Whereas in the model goethite (α-FeOOH) and lepidocrocite (γ-FeOOH) were primarily formed, the percentage of ferrihydrite (Fe 5 HO 8 ∙ 4 H 2 O) was higher in the field samples. Quickly precipitated feroxyhyte (δ’-FeOOH) was found in the laboratory samples only. With the XRD-measurements a gypsum phase was identified in the field samples, presumably originating from evaporation of residual mine water in the gravel pack of the sampled wells. The, however subtle, differences in mineralogy of the Fe-precipitates in the model occurred as a result of deviations in the hydrochemistry of the process water, especially the dominating anion (chloride in the model instead of sulphate or bicarbonate in the field) and the amount of dissolved silicon. As discovered with the computed hydrogeochemical model, apart from pH and temperature, the strongest effects on the reaction rate of Fe(II) -oxidation with Fe(III) -precipitation were the amount of dissolved oxygen in the process water as well as its pH-buffering content of bicarbonate. Microscopic analyses showed the surface structure of the gravel grains to be responsible for the thickness of Fe(III) -hydroxide coatings. Especially irregularly formed monocrystalline quartz grains, weathered feldspar grains and polycrystalline quartzite grains were found to develop a higher thickness of Fe(III) -hydroxide coatings, when their surface area was uneven. All of the different gravels and filter pack materials were found to perform similarly with respect to long-term elution as well as Fe-clogging affinity. Despite initial contents of ferric iron minerals in the Quaternary gravel materials, no significant autocatalytic effect of Fe(II) -oxidation and Fe(III) -precipitation was observed. Application of the alternative Quaternary gravel materials should therefore be possible without having to expect any substantial drawbacks or disadvantages when compared to the Tertiary Weilerswist gravel. However, application of the glass bead filter pack in the model did not result in a significantly better performance with respect to Fe-clogging-affinity, when compared to the natural gravel materials. Therefore, amortisation of the high investment cost of a glass bead filter pack during the relatively short lifetime of a <b>dewatering</b> <b>well</b> is uncertain and can thus not be recommended for the dewatering wells in the Rhenish lignite district, where no regeneration methods are applied. A new concept of multi-layered dewatering through the annular space of dewatering wells was implemented in three test wells by RWE Power AG, transferring the results of the filter aeration experiments to the field scale. The vertical hydraulic conductivity of the annular space and the functionality of the concept were then tested by tracer experiments. Improved hydraulic conductivities and flow rates in the annular space – filled with gravel pack material instead of the usual filling material – were confirmed by the field experiments. The decreased Fe-clogging affinity of such wells was confirmed in the Fe-clogging model. Avoiding aeration of the screen lead to preclusion of Fe(II) -clogging, so long as the filter pack stayed fully saturated and the screen pipe submerged. Further optimisation and automatisation of model operation could allow quicker evaluation of the Fe-clogging affinity of further well assembling materials and operating concepts. A more realistic situation could be simulated when considering sulphate or bicarbonate as the dominating anions. Matters that could be investigated by application of the proposed Fe-clogging model include optimising the screen pipe material and geometry, inert gas treatment and electrochemical methods for preventing chemical Fe-clogging, optimisation of regeneration measures, biological aspects of Fe-clogging and identification of relevant air-flow pathways...|$|E
40|$|Abstract: In {{both the}} UK and the US, low permeability, {{vertical}} barriers (slurry walls) {{are widely used}} in systems designed and constructed for the control of groundwater such as in to temporary excavations. These vertical barriers may result in more economical dewatering for larger and/or more complex underground excavation projects than <b>dewatering</b> <b>wells,</b> the conventionally used alternative. In the US, soil-bentonite slurry wall technology is the predominant method {{for the construction of}} these low permeability barriers. In contrast, slag-cement-bentonite slurry wall technology is the most widely employed me thod in the UK. These barriers are made with water, cement, and granulated ground blast furnace slag. This paper presents an examination, comparison, and assessment of each of these practices. It is concluded that slag-cement-bentonite techniques could readily be adopted by US designers and contractors. Permeability data developed in the US using US sourced ingredients are presented which show that a mixture of about 20 % cementitious material to 80 % slurry (where the cementitious material is about 25 % Portland cement and 75 % slag) results in a barrier having a hydraulic conductivity less than 1 x 10 - 7 cm/s. Evidence points to a current trend towards the increased use of slag-cement-bentonite cutoffs in the US...|$|R
40|$|Graduation date: 2016 Residents in South Falls City, a {{small town}} in the foothills of Oregon's Coast Range, battle intense {{flooding}} during the rainy season. Disagreements about surface water management pit neighbor against neighbor, but preliminary evidence suggests that groundwater flooding is an underlying cause. OSU researchers pair the emerging literature on groundwater flooding with a collaborative learning framework to manage conflict and characterize the region's hydrology. This joint fact-finding mission seeks to determine if (1) the groundwater contributes to the apparent stormwater flooding, and (2) if a Coupled Human and Naturals Systems (CHANS) approach to groundwater control can alleviate both flooding and conflict. A Falls City/OSU partnership provide funds for a monitoring well to measure depth of the alluvial aquifer, produce water table hydrographs, and determine aquifer properties. LIDAR based surface elevation data help resolve surface-groundwater interactions. Results show that groundwater plays {{an active role in the}} surface flooding. AquiferWin 32 software provided by Dr. Steve Taylor from Western Oregon is used to evaluate potential mitigation strategies including ditch modifications, drain tiles, land cover changes, and <b>dewatering</b> <b>wells.</b> Engineering measures and stakeholder suggestions are synthesized to create mitigation recommendations for South Falls City. South Falls City joins a growing body of media reports and literature on groundwater flooding. A common theme emphasizes the importance of cooperative land and aquifer management in flooding regions, particularly in light of predicted precipitation increases with global climate change...|$|R
40|$|Three sets of {{satellite}} data were utilized to outline and monitor the waterlogging problems along the Wadi El Tumilate basin. These data include Thematic Mapper image for year 1984, Enhanced Landsat Thematic Mapper image for year 2000 and SPOT- 4 image for year 2008. Supervised classification using the maximum likelihood {{approach has been}} performed. A number of 6 classes were observed at the study sites including, Niledeposits and cultivated areas, surface water and water logged areas, salt crust, Quaternary playa deposits, fluviatile and lacustrine deposits and Miocene (gypsum and carbonate) deposits. Water logged areas expanded from 9. 1 km 2 inyear 1984 to 18. 8 km 2 inyear 2000 to 25. 3 km 2 inyear 2008, with a rate of 0. 7 km 2 /year. At the same time, vegetation cover shows an increase from 453 km 2 inyear 1984 to 719 km 2 inyear 2008. The integrated data used by Geographic Information Systems specified factors controlling waterlogging problems, which are: topography, drainage pattern and water flow direction, excess of irriga tion water, deficiency of drainage system, presence of impermeable clay lenses and lineaments direction. Groundwater modeling including GMS and MODFLOW programs were processed to manage waterlogging problem. Using of un derground tile drain along the eastern portion of Wadi El Tumilate basin and <b>dewatering</b> <b>wells</b> along the western side was recommended to obtain the highest monetary return from the drainage investment. </p...|$|R
40|$|AbstractA jet grout block {{created by}} {{overlapping}} columns aimed {{to convert the}} saturated silty sand soils into a safe space for breaking down four underground parking uplift piles along the tunnel alignment. Since the grouting platform was located on the mat foundation {{in the basement of}} underground parking and was under the groundwater table, a series of <b>dewatering</b> <b>wells</b> were installed before the 177 columns were constructed to prevent intrusion of the groundwater flowing upward from sandy soil to basement through grouting hole during wash boring and grouting stages from happening. Several quality control measures were undertaken prior to quality assurance testing. Two measurements of spoil return and spoil flow rate for each column were implemented. From a back analysis from the mean values of spoil density and spoil flow rate, the column diameter was estimated at around 1. 56 m, slightly smaller than the design diameter by 2. 5 %. In addition, a control chart with upper and lower control limits, established from a large dataset of flow rate of spoil return, was a means to recognize the likelihood of sand boiling and to serve as an early warning indicator of abnormal conditions for the jet grouting works below the groundwater table. As the mean spoil density of the infill column was larger than perimeter column, an optimal grouting sequence for clusters was suggested in this paper. The jet grout block exposed during the breakdown process of the piles showed safe working conditions as required and a shield machine then passed through as planned...|$|R
40|$|AbstractResidential {{areas of}} Kuwait have been {{affected}} by rising groundwater levels for many years. The main reason for this problem is the increased recharge derived from the excessive irrigation of gardens and parks, and leaks from sewage networks, where the hydraulic characteristics of the lithology {{play an important role in}} intensifying the impacts of this phenomenon at local scale. The objective of this paper is to assess the hydrological conditions of Al-Qurain residential area to identify the extent and the causes of the water rise problem. A total of 25 wells of various depths were drilled, constructed and sampled at the study area. Water level loggers installed in the drilled wells indicated that water levels are fluctuating on daily bases and increasing up to 50 cm during winter months due to the reduction of evapotranspiration and recharge from rainfall. Combining the water level records and the results of the isotopic, chemical and biological analysis, it was concluded that the top 20 m of the aquifer water is made up of mostly irrigation, waste and rain water in addition to the aquifer groundwater. It was also observed that the intruding water from lower Dammam aquifer is dominating the aquifer beneath 40 m depth. This conclusion along with the steep topography of the area explained why this area is naturally prone to water rise. The study recommended the utilization of integrated system of <b>dewatering</b> <b>wells</b> along with desalination units to lower the water level and re-utilize the groundwater. On the prevention side, it is recommended to conduct an awareness campaign that educate the residents of the impacts of over use of water on their own properties...|$|R
40|$|This paper {{proposes a}} {{simplified}} analytical solution {{to determine the}} primary consolidation settlement of a confined sand aquifer overlain by a clay layer due to single <b>well</b> <b>dewatering.</b> After single <b>well</b> pumping in a steady state, the Dupuit equation predicts the confined sand aquifer water head drawdown. The confining pressure on the underlain confined sand aquifer top surface is determined using the principle of vertical force equilibrium. Additional vertical stresses in each layer of the confined sand aquifer are then computed with the Boussinesq solution. The overall aquifer consolidation deformation is then determined with the e-lgp curve from the one-dimensional consolidation test and the applied vertical stress with the integral method. The proposed analytical solution is validated using the ADINA software, where porous media are simulated with the Biot model and solved with the 3 D finite element method. This proposed analytical solution is used to simulate the primary consolidation settlement due to well pumping, using the fourth confined aquifer in the Pudong New Area of Shanghai from 1980 to 1995 as a case study. The predicted settlement compares reasonably well with the actual measured settlement in Shanghai...|$|R
5000|$|Filter presses {{are used}} in a huge variety of {{different}} applications, from dewatering of mineral mining slurries to blood plasma purification. At the same time, filter press technology is widely established for ultrafine coal <b>dewatering</b> as <b>well</b> as filtrate recovery in coal preparation plants. According to G.Prat, the [...] "filter press is proven {{to be the most}} effective and reliable technique to meet today's requirement". One of the examples is Pilot scale plate filter press, which is specialized in dewatering coal slurries. In 2013 the Society for Mining, Metallurgy and Exploration published an article highlighting this specific application. It was mentioned that the use of the filter press is very beneficial to plant operations, since it offers dewatering ultraclean coal as product, as well as improving quality of water removed to be available for equipment cleaning.|$|R