2|134|Public
5000|$|Somewhat more formally, Bowditch defines {{variation}} as “the angle {{between the}} magnetic and geographic meridians at any place, expressed in degrees and minutes {{east or west}} to indicate the direction of magnetic north from true north. The angle between magnetic and grid meridians is called grid magnetic angle, <b>grid</b> <b>variation,</b> or grivation.” ...|$|E
40|$|In {{an effort}} to better {{characterize}} the inputs to radiative transfer models and research-grade global climate simulation models (GCMs) the columnar aerosol loading, measured as the aerosol optical depth (AOD), has been computed for five facilities within the Atmospheric Radiation Measurement (ARM) Southern Great Plains (SGP) Cloud and Radiation Testbed (CART) Site. Characterization of the AOD reported here show clear evidence that the spatial and temporal gradient exists at a much finer linear scale {{than those of the}} CART site. The annual variations of median AOD are on the order of 0. 30 at all five facilities. The Spearman correlation and varimax-rotated PCA indicated the AOD values vary consistently across the CART site. The Northwest corner facility (EF- 1) was the single facility that behaved differently from the rest. This sub-GCM <b>grid</b> <b>variation</b> can not be ignored if the model is to be used to accurately predict future climate change...|$|E
5000|$|MODFLOW-USG (version 1.3.00, December 1, 2015), {{designed}} to be adapted {{to a wide range}} of <b>grid</b> <b>variations</b> using unstructured <b>grids</b> ...|$|R
5000|$|... the <b>grid</b> nephoscope, a <b>variation</b> on {{the comb}} {{modified}} by the Norwegians.|$|R
40|$|SolvSim Power Station (SSPS) is a hard-ware-in-the-loop {{simulator}} {{that can}} be utilized to test and prepare power stations for island operation. SSPS has been successfully used in Sweden over the past decade. During the test, the power station remains connected to the grid without the need to establish an actual island system. SSPS requires the tested power station to be synchronized to a strong grid. The principle of SSPS is to replace the normal frequency feedback of the governor with a simulated frequency. This thesis investigates the in uence of <b>grid</b> frequency <b>variation</b> on the test. Two scenarios of frequency variation is considered; 1) spontaneous frequency <b>variation</b> in large <b>grid</b> 2) <b>grid</b> frequency <b>variations</b> {{as a consequence of}} the test. In this thesis, a model of a power station connected to a grid with a variable frequency is implemented. SSPS tests are performed on the power station using a model of SSPS. The results of this thesis demonstrates that SSPS is dependent on the rate of change of frequency (RoCoF) of the grid rather active power output of the generating is used as an input during the test. The results also show that the in uence of <b>grid</b> frequency <b>variation</b> on SSPS tests is insignificant for both scenarios...|$|R
40|$|A {{nonlinear}} controller {{for single-phase}} grid-tied inverters, that can operate under both a normal and a faulty grid with guaranteed closed-loop stability, is proposed. The proposed controller acts independently {{from the system}} parameters, {{does not require a}} phase-locked loop (PLL) and can achieve the desired real power regulation and unity power factor operation. Based on nonlinear input-to-state stability theory, it is analytically proven that the inverter current always remains below a given value, even during transients, independently from <b>grid</b> <b>variations</b> or faults (short circuit or voltage sag). The desired performance and stability of the closed-loop system are rigorously proven since the controller has a structure that does not require any switches, additional limiters or monitoring devices for its implementation. Therefore, nonlinear stability of a grid-tied inverter with a given current-limiting property is proven for both normal and faulty grid conditions. The effectiveness of the proposed approach is experimentally verified under different operating conditions of the grid...|$|R
40|$|Gas turbine {{power plants}} {{are widely used}} for power {{generation}} in the world, it has low cost, low time of installation, and stable with electricity <b>grid</b> <b>variations.</b> But it is very affected by ambient temperature, in hot days power demand is increased while gas turbine power decrease with percent 18 % when ambient temperature increase to 40 °C because air density is lower and compressor specific work increases. Inlet cooling methods used to cool inlet air to boost the power loss in hot days. Chiller cooling and evaporative cooling is studied thermally and economically for 264 MW gas turbine plant located at Korymat – South of Egypt, the results indicates that the gas turbine annual power gained by cooling by chiller is 117027 MWh, and the net cash flow is 3787537 $, while the gas turbine annual power gained by cooling by evaporative is 86118 MW, and the net cash flow is 4503548 $...|$|R
40|$|Objective: This study {{describes}} morphological {{variations of}} the face of hypertensive women when compared to non-hypertensives. Material and Methods: Digital images of the faces of 54 non-hypertensive and 41 hypertensive women were used in this study. Forty-one manuallypositioned landmarks were on front face images, while twenty-eight landmarks were collected on left and right face images, the Cartesiancoordinates of which were extracted using an image analysis and processing software. The faces were then aligned using Procrustes alignmentof the Cartesian coordinates to eliminate size differences and rotational translation. The size residuals left after the alignment were then used toreconstruct the face truss network using thin-plate spline <b>grids.</b> <b>Variations</b> in facial morphology were then explored using the methods of relativewarps analysis and partial warps analysis. Results: Principal Component Analysis revealed that in both populations of females, five or sixprincipal components contribute most to the variation that exist among individuals. Results for fluctuating asymmetry are higher compared toindividual variation, with even higher values in hypertensive individuals compared to non-hypertensive. Scatterplots of residual asymmetrybetween the two groups further revealed the distinct differences existing between them...|$|R
40|$|AbstractThis paper {{proposed}} a hybrid technique based on power quality (PQ) enhancement in grid connected Photovoltaic (PV) system. The hybrid technique is the combined performance {{of both the}} Radial Basis Function Neural Network (RBFNN) and Proportional Integral (PI) controller. The primary intention of the proposed method is to predict the adaptive gain parameters for both the normal and abnormal environment in the grid side. In the proposed method, the RBFNN is trained with input parameters such as <b>grid</b> power <b>variations</b> and the target gain parameters of the PI controller. During the testing time, the RBFNN predicts the gain parameters of the PI controller as per the <b>grid</b> side parameter <b>variation</b> and the PQ of the grid side has been enhanced. Then the proposed method is implemented in the MATLAB/Simulink platform and the effectiveness is examined by comparison analysis with the conventional techniques...|$|R
30|$|It is {{relatively}} {{difficult to obtain}} the regular because of complex model structure. Therefore, the amount of computation of the CPU is reduced by using a <b>grid</b> which the <b>variation</b> {{is relatively}} small in the density [10].|$|R
40|$|International audienceDesigning {{passive filter}} for the voltage source {{converter}} is very popular. In this paper, {{a new approach}} to design an LCL filter is proposed. The step by step design procedure is shown which is missing in most of the papers published recently. The proposed method meets the traditional practical limits, while guarantees more stability even in the presence of wide <b>grid</b> inductance <b>variations</b> and filter parameter uncertainties. The performance of the proposed method is verified by simulation results...|$|R
40|$|Abstract. Adjustments are {{proposed}} of the Delayed Detached Eddy Simulation (DDES) approach to turbulence. They preserve the DDES capabilities particularly for natural DES uses, and resolve the mismatch of the logarithmic layers discovered earlier {{for the basic}} DES technique when used for Wall-Modelled Large-Eddy Simulation (WMLES) of attached flows. The adjustments are defined both for the Spalart-Allmaras and the Menter SST models. The first one concerns {{the definition of the}} LES length scale in general for anisotropic grids near a wall, and makes use of the wall distance along with the grid spacing; it clearly benefits even the Smagorinsky model. The second one manages the blending of RANS and LES behaviour within a WMLES to advantage, greatly increasing the resolved turbulence activity near the wall, and finely adjusting the resolved logarithmic layer. This is seen in channel flow over a wide Reynolds-number range, and through some <b>grid</b> <b>variations.</b> Tests show that the new method, although somewhat more complex, returns the desired behaviour not only in channel-flow LES, but also in channel-flow RANS, in a backward-facing-step case with side-by-side LES and RANS regions, and over an airfoil in deep stall. ...|$|R
40|$|Thirteen sets of dished {{accelerator}} grids {{were tested}} on five different 30 -cm diameter bombardment thrustors {{to evaluate the}} effects of <b>grid</b> geometry <b>variations</b> on thrustor discharge chamber performance. The dished grid parameters varied were: grid-to-grid spacing, screen and accelerator grid hole-diameter, screen and accelerator open area fraction, compensation for beam divergence losses, and accelerator grid thickness. Also investigated were the effects on discharge chamber performance of main magnetic field changes, magnetic baffle current cathode pole piece length and cathode position...|$|R
40|$|This {{paper is}} {{concerned}} with the design and practical implementation of a robust digital current controller for a threephase voltage source grid-connected interleaved inverter. Each phase consists of 6 half-bridge channels connected in parallel. Due to the current ripple cancellation of the interleaving topology, only small output filter capacitors are required which provide high impedance to grid voltage harmonics and hence better current quality compared to traditional 2 -level LCL topology. The current in each inductor is controlled via a single feedback loop. A feedforward loop of the grid voltage is incorporated to compensate for the grid disturbance. To control the high resonance frequency of the filter, high sampling and switching frequencies are required. Alternatively, resistors in series with the filter capacitors are used to provide damping. This method becomes practically possible due to the low magnitude of the current of the capacitors and consequently low power dissipation in the damping resistors. The paper also studies in detail the effects of computational time delay and <b>grid</b> impedance <b>variation</b> on system stability. A phase lag compensator incorporated in the inductor current loop is designed to increase system immunity to <b>grid</b> impedance <b>variations.</b> Simulation and practical results are presented to validate the design...|$|R
40|$|International audienceThe {{proportion}} of the intermittent and non "dispatchable" renewable resources such as solar or wind power will increase in the future. A higher flexibility will be required for the "controllable" generation facilities to guarantee the power production and consumption balance and particularly the combined cycle. Numerous {{studies have been done}} to reduce the start-up time for combined cycle, but some <b>grid</b> <b>variations</b> necessiate faster power response known as primary and secondary frequency control which consist of power variations added to the power reference. To deliver a faster and bigger powier response it is worthwhile to consider the use of the steam turbine. The throttling influences the efficiency and the live steam pressure such that the problem is intrinsically multivariable and requires coordination of the gas and steam turbine loads. The paper presents a solution based on advanced control strategies to improve the response of the combined cycle plants. The technique used is a Model Predictive Control (MPC) based on a linear model of the process which reproduces the effect of the gas turbine load and the throttle of the steam turbine valve on the electrical power and live steam pressure. Results obtained in simulation are also given and show the participation of the steam turbine for primary responses...|$|R
40|$|Discontinuous Galerkin (DG) methods {{offer an}} {{enormous}} flexibility regarding local <b>grid</b> refinement and <b>variation</b> of polynomial degrees rendering such concepts pow-erful discretization tools which {{have proven to}} be well-suited for a variety of differ-ent problem classes. While initially the main focus has been on transport problem...|$|R
40|$|Abstract: This paper {{presents}} {{analysis and}} improvement of power quality (voltage sag, voltage swell) performance of grid connected inverter used in distributed generation. The developed controller controls power {{supplied by the}} DGs at the PCC. The controller is designed to deliver current at unity power factor at PCC. An increase in reactive power demand and harmonics at PCC due to change of load and <b>grid</b> impedance <b>variation,</b> would affect the system voltage at PCC. This paper proposes {{the structure of the}} designed controller consists of output power with voltage control...|$|R
40|$|The {{internal}} model principle based Repetitive Control (RC) offers an accurate control strategy for grid-tied power converters to feed sinusoidal current into the grid. However, {{in the presence}} of <b>grid</b> frequency <b>variations,</b> the conventional RC fails to produce high quality feeding current. This paper thus explores a frequency adaptive repetitive control strategy for grid converters, which employs fractional delay filters in order to adapt to the change of the grid frequency. Case studies with experimental results of a single-phase grid-connected PV inverter system are provided to verify the proposed controller...|$|R
40|$|The recent {{proliferation}} of Data Grids and the increasingly common practice of using resources as distributed data stores provide a convenient environment for communities of researchers to share, replicate, and manage access to copies of large datasets. This {{has led to}} the question of which replica can be accessed most efficiently. In such environments, fetching data from one of the several replica locations requires accurate predictions of end-to-end transfer times. The answer to this question can depend on many factors, including physical characteristics of the resources and the load behavior on the CPUs, networks, and storage devices {{that are part of the}} end-to-end data path linking possible sources and sinks. Our approach combines end-to-end application throughput observations with network and disk load variations and captures whole-system performance and variations in load patterns. Our predictions characterize the effect of load variations of several shared devices (network and disk) on file transfer times. We develop a suite of univariate and multivariate predictors that can use multiple data sources to improve the accuracy of the predictions as well as address Data <b>Grid</b> <b>variations</b> (availability of data and sporadic nature of transfers). We ran a large set of data transfer experiments using GridFTP and observed performance predictions within 15 % error for our testbed sites, which is quite promising for a pragmatic system. Comment: 29 pages, 11 figure...|$|R
40|$|In this paper, {{the use of}} {{a method}} for online {{detection}} of positive- and negative-sequence components of three-phase quantities, named the delayed signal cancellation (DSC) method, is investigated. Problems that arise in practical implementation of the DSC method in computer-controlled systems are investigated. Expressions of the detection error due to nonideal discretization are derived and calculations are verified experimentally. Two methods for reducing the detection error are presented and verified. It is also shown that the given expressions and proposed methods for reducing the detection errors can also be applied to the case of <b>grid</b> frequency <b>variations...</b>|$|R
40|$|This study {{presents}} a topology for a single-phase pulse-width modulation (PWM) converter which achieves low-frequency ripple {{reduction in the}} dc bus even when there are <b>grid</b> frequency <b>variations.</b> A hybrid filter is introduced to absorb the low-frequency current ripple in the dc bus. The control strategy for the proposed filter {{does not require the}} measurement of the dc bus ripple current. The design criteria for selecting the filter components are also presented in this study. The effectiveness of the proposed circuit has been tested and validated experimentally. A smaller dc-link capacitor is sufficient to keep the low-frequency bus ripple to an acceptable range in the proposed topology...|$|R
40|$|In recent years, {{renewable}} {{and distributed}} generation (DG) systems have contributed towards an efficient and an economic way of transporting electricity to end-users as the generation sources are in general located nearer the loads. DG {{and renewable energy}} systems are modifying the old concept of distribution network by instigating a bi-directional power flow into the grid, facilitated {{through the use of}} power electronic grid-connected converters. A challenge associated with grid-connected converters arises when they are interacted with a grid that is not stiff, like weak micro grids. Small <b>grid</b> parameter <b>variations</b> in these systems can considerably affect the performance of the converter control and lead to higher values in current total harmonic distortion (THD) and loss of control and synchronization. Thus, the control of grid-connected power converters needs to be regularly updated with latest <b>variation</b> in <b>grid</b> parameters. Model Predictive Direct Power Control (MP-DPC) has been chosen as the control strategy for the work presented in this thesis due to its advantages over traditional control techniques such as multivariable control, no need of phase-locked loops (PLLs) for grid synchronization and avoidance of cascaded control loops. Two novel methods for estimating the <b>grid</b> impedance <b>variation,</b> and hence the grid voltage, are presented in this thesis along with a detailed literature review on control of grid-connected converters with special emphasis on impedance estimation techniques. The first proposed estimation method is based on the difference in grid voltage magnitudes at two consecutive sampling instants while the second method is based on a model-fitting algorithm similar to the concept of cost-function optimization in model predictive control. The proposed estimation methods in this thesis are integrated within the MP-DPC, therefore updating the MP-DPC in real-time with the latest <b>variation</b> in <b>grid</b> impedance. The proposed algorithms provide benefits such as: quick response to transient variations, operation under low values of short-circuit-ratio (SCR), robust MP-DPC control, good reference tracking to <b>grid</b> parameter <b>variations</b> and operation under unbalanced grid voltages. The thesis also presents the advantages and drawbacks of the proposed methods and areas where further improvement can be researched. The work presented has been tested on a three phase two-level grid-connected converter prototype, which is connected to a low voltage substation highly dominated by inductive component of grid impedance. It can be adapted and modified to be used for general grid impedance estimation, medium or high voltage applications, in case of multilevel grid-connected converter topologies or photo-voltaic (PV) grid-connected applications...|$|R
40|$|TDIGG is a {{fast and}} {{versatile}} program for generating two-dimensional computational grids {{for use with}} finite-difference flow-solvers. Both algebraic and elliptic grid generation systems are included. The method for grid generation by algebraic transformation {{is based on an}} interpolation algorithm and the elliptic grid generation is established by solving the partial differential equation (PDE). Non-uniform grid distributions are carried out using a hyperbolic tangent stretching function. For algebraic grid systems, interpolations in one direction (univariate) and two directions (bivariate) are considered. These interpolations are associated with linear or cubic Lagrangian/Hermite/Bezier polynomial functions. The algebraic grids can subsequently be smoothed using an elliptic solver. For elliptic grid systems, the PDE can be in the form of Laplace (zero forcing function) or Poisson. The forcing functions in the Poisson equation come from the boundary or the entire domain of the initial algebraic grids. A graphics interface procedure using the Silicon Graphics (GL) Library is included to allow users to visualize the <b>grid</b> <b>variations</b> at each iteration. This will allow users to interactively modify the grid to match their applications. TDIGG is written in FORTRAN 77 for Silicon Graphics IRIS series computers running IRIX. This package requires either MIT's X Window System, Version 11 Revision 4 or SGI (Motif) Window System. A sample executable is provided on the distribution medium. It requires 148 K of RAM for execution. The standard distribution medium is a. 25 inch streaming magnetic IRIX tape cartridge in UNIX tar format. This program was developed in 1992...|$|R
40|$|Doubly fed {{induction}} generator (DFIG) based wind turbines {{are very sensitive}} to <b>grid</b> voltage <b>variations.</b> Therefore, low-voltage-ride-through (LVRT) and high-voltage-ride-through (HVRT) capabilities are employed to improve DFIG performance during grid faults and voltage swell events. In this paper, a superconducting magnetic energy storage (SMES) device with a PWM voltage source converter and a DC-DC chopper is proposed to enhance the DFIG LVRT and HVRT capabilities in an islanded microgrid simultaneously. The simulation results demonstrate that the SMES absorbs or releases energy from/to the microgrid during voltage swell events and fault condition respectively and consequently, improves the DFIG performance and enhances the DFIG LVRT and HVRT capabilities. The effectiveness of the proposed method is validated through detailed simulations in PSCAD/EMTDC...|$|R
40|$|In {{this paper}} we present thermal cycling {{experiments}} of GridPix radiation imaging detectors, {{in view of}} a potential application in a cryogenic experiment. The robustness of the GridPix detector is studied for various grid designs, as well as various mechanical and thermal surroundings. The <b>grid</b> design <b>variations</b> had insignificant effect on the grid strength. A low cool-down rate as well as good thermal contact are crucial for the durability of the grid. Further, additional strengthening at the grid edges proved necessary to maintain {{the integrity of the}} structure during thermal cycling, which was done using globtop adhesive. The combination of these measures led to 100 % survival rate after thermal cycling down to − 130 °C...|$|R
50|$|The {{formation}} of large-scale (stratus-type) clouds is more physically based, they form when the relative humidity reaches some prescribed value. Still, sub grid scale processes {{need to be}} taken into account. Rather than assuming that clouds form at 100% relative humidity, the cloud fraction can be related to a critical relative humidity of 70% for stratus-type clouds, and at or above 80% for cumuliform clouds, reflecting the sub <b>grid</b> scale <b>variation</b> that would occur in the real world. Portions of the precipitation parameterization include the condensation rate, energy exchanges dealing with the change of state from water vapor into liquid drops, and the microphysical component which controls the rate of change from water vapor to water droplets.|$|R
25|$|Some {{variations}} on Life modify {{the geometry of}} the universe {{as well as the}} rule. The above variations {{can be thought of as}} 2-D square, because the world is two-dimensional and laid out in a square <b>grid.</b> 1-D square <b>variations</b> (known as elementary cellular automata) and 3-D square variations have been developed, as have 2-D hexagonal and 2-D triangular variations. A variant using non-periodic tile grids has also been made.|$|R
40|$|International audienceThis paper {{deals with}} the Fault Ride-Through (FRT) {{capability}} assessment of a Doubly-Fed Induction Generator (DFIG) -based Wind Turbine (WT) using High-Order Sliding Mode (HOSM) control. Indeed, it has been recently suggested that sliding mode control is a solution of choice to the FRT problem. In this context, this paper proposes HOSM as an improved solution that handle the classical sliding mode chattering problem. Indeed, the main and attractive features of HOSMs are robustness against external disturbances (e. g. grid) and chattering-free behavior (no extra mechanical stress on the drive train). Simulations using the NREL FAST code on a 1. 5 -MW wind turbine are carried-out to evaluate ride-through performance of the proposed HOSM control strategy in case of <b>grid</b> frequency <b>variations</b> and unbalanced voltage sags...|$|R
40|$|Non-linear loads such as AC drives {{switch-mode}} {{power supplies}} and grid-connected converters can cause, besides the generation of unwanted current harmonics, a DC current component injection into the grid. This DC current component can lead to magnetic saturation of the distribution power transformers, leading to higher current distortion and overheating. This paper presents a method to detect the DC current component flowing into the distribution power transformer with a precise measurement of the DC voltage component at the transformer winding. A magnetic sensor has been developed and implemented in a closed-loop control system to achieve a high sensitivity and guarantees a good linearity with a high rejection ratio to <b>grid</b> voltage <b>variations.</b> Simulation and experimental results confirm {{the effectiveness of the}} proposed approach...|$|R
40|$|The paper {{reports the}} {{development}} of a laboratory prototype of a fully digital DSP controlled 12 kVA Shunt Active Filter (ShAF) capable of compensating for non-linear, unbalanced load and reactive power. A fully digital controller is implemented for the reference generation and the current control purposes. The delay problem in digital current controller is overcome by application of a fast DSP, a compact controller and proper flow of control steps in the DSP software. A Phase Locked Loop (PLL) -less software grid synchronization method has been proposed for the effective operation of the ShAF under the <b>grid</b> frequency <b>variation.</b> The source current THD has been improved from 15. 8 % to 4. 45 %. The control features, experimental setup, and results are presented in the paper...|$|R
40|$|Now days {{wind power}} energy {{is playing a}} major role in power industry. With the {{increase}} in application of wind power variety of new topologies are coming into picture. Among the different form of variable speed fixed frequency topologies DFIG is most popular form due to its efficiency and ability to allow wide range of speed variation at reduced converter size. Doubly Fed Induction Generator (DFIG) is basically a wound rotor induction generator which is used to fed power from both stator and rotor circuit. Stator feeds power directly to grid which is unidirectional. Rotor circuit is connected to a bidirectional ac/dc/ac converter having a common dc link bus. In rotor, power flow is bidirectional i. e. depending on the mode of operation the power flow is either from rotor side to grid or it may be from grid side to rotor. The rotor side converter also fed reactive power to DFIG so as it can run at a near unity power factor. The function of the grid voltage converter is to maintain the DC link voltage constant, which ultimately fed a constant amplitude ac voltage to rotor side for maintaining the flux constant. But when <b>grid</b> voltage <b>variation</b> occurs, the dc link voltage also varies, ultimately rotor input voltage varies. This causes abnormal input of reactive power to rotor circuit. So to maintain the reactive power demand of machine, it draw reactive power from grid, which may lead to a condition of voltage fluctuation at PCC. One solution to this problem may be compensation of <b>grid</b> voltage <b>variation</b> before <b>grid</b> converter circuit. This compensation of voltage sag is done by a custom power device, known as Dynamic Voltage Restorer (DVR). The current Topic discusses about the application of DVR to DFIG to compensate voltage sag of grid so that the voltage of DC link will remain constant...|$|R