269|15|Public
2500|$|Masterson, J.P. and J.W. Portnoy. (2005). Potential {{changes in}} <b>ground-water</b> <b>flow</b> {{and their effects}} on the ecology and water {{resources}} of the Cape Cod National Seashore, Massachusetts [...] Reston, VA: U.S. Department of the Interior, U.S. Geological Survey.|$|E
5000|$|MF2005-FMP2 (version 1.0.00, October 28, 2009), {{estimate}} dynamically integrated supply-and-demand {{components of}} irrigated agriculture {{as part of}} the simulation of surface-water and <b>ground-water</b> <b>flow</b> ...|$|E
5000|$|The USGS {{throughout}} the 1970s had developed several hundred models, written in different dialects of FORTRAN. At the time, {{it was common}} practice to rewrite a new model to fit the need of a new groundwater scenario. The concept for MODFLOW was originally designed in 1981 to provide a common modular groundwater model, which could be compiled on multiple platforms without major (or any) modification, and can read and write common formats. Different aspects of the groundwater system would be handled using the modules, similar {{to the idea of}} a [...] "component stereo system". The original name of the code was [...] "The USGS Modular Three-Dimensional Finite-Difference <b>Ground-Water</b> <b>Flow</b> Model", or informally as [...] "The Modular Model." [...] The name MODFLOW was coined several years after the initial code development, which started in 1981.|$|E
40|$|A {{method for}} {{estimating}} unmeasured <b>ground-water</b> return <b>flow</b> from water diverted for irrigation {{is needed to}} determine consumptive use of water from the lower Colorado River in the Parker area, Arizona and California. <b>Ground-water</b> return <b>flow</b> can be estimated with a water budget of part of the Parker valley under which ground water drains to the Colorado River. Major components of the water budget are surface-water diversions and consumptive use of water by vegetation. <b>Ground-water</b> return <b>flow</b> is the residual of the budget. Application of this method using flow data for 1981 results in a estimate of 15, 400 acre-feet of <b>ground-water</b> return <b>flow.</b> The amount of groundwater return flow for 1981 is small in comparison to the amount of surface water that returns to the Colorado River by way of the system of drainage ditches in Parker Valley...|$|R
40|$|A {{detailed}} three-dimensional {{numerical model}} has been developed for the low-temperature hydrothermal system at Botn in Central North Iceland. It {{is based on a}} conceptual reservoir model which has evolved during two decades of geothermal research in the area and on the 10 year production history of the system. The model consists of (1) A powerful recharge system at depth, (2) a shallow production reservoir and (3) a cold ground-water system at the surface. About 10 million tons of hot water have been extracted from the production reservoir since late 1981. The presence of the powerful recharge system results in a very slow long-term pressure decline. Flow of water in the production reservoir appears to be controlled by a highly permeable, vertical fracture-zone confined by low-permeability rocks. Cold <b>ground-water</b> <b>flows</b> down into the fracture-zone during production causing some cooling of the extracted water...|$|R
40|$|Graduation date: 1994 Changes in the {{concentrations}} of dissolved ammonia (NH 4 + 1), nitrate (NO 3 - 1), organic nitrogen (DON) were monitored along ground water flow paths to determine {{the importance of the}} ground water system to the stream nitrogen budget. The study site was located on a wide floodplain along a fourth-order stream in the Oregon Cascades. A network of wells was installed during the summers of 1989 and 1990. Water table elevations and nitrogen chemistry was sampled seasonally and within individual storm events. Subsurface flows were dominated by the flow of advected channel water through the gravel bar. Flow rates were correlated to stream discharge during base-flow periods, but did not increase during storms. In contrast, <b>ground-water</b> <b>flows</b> through the aquifer beneath the floodplain were small during base flow, but nearly doubled during storm events. The mean residence time of water stored within the aquifer was long, exceeding 10 days for the gravel bar and 30 days for the floodplain. Even though precipitation inputs to the aquifer during storms equaled 12...|$|R
40|$|This {{report is}} {{a guide for}} {{executing}} numerical simulations with the transient <b>ground-water</b> <b>flow</b> model of the Death Valley regional <b>ground-water</b> <b>flow</b> system, Nevada and California using the U. S. Geological Survey modular finite-difference <b>ground-water</b> <b>flow</b> model, MODFLOW- 2000. Model inputs, including observations of hydraulic head, discharge, and boundary flows, are summarized. Modification of the DVRFS transient ground-water model is discussed for two common uses of the Death Valley regional <b>ground-water</b> <b>flow</b> system model: predictive pumping scenarios that extend beyond {{the end of the}} model simulation period (1998), and model simulations with only steady-state conditions...|$|E
3000|$|Modular Finite-Difference <b>Ground-Water</b> <b>Flow</b> ModelMS, multi start random search (optimization {{method in}} LGO) [...]...|$|E
40|$|In {{the early}} 1990 's, two {{numerical}} {{models of the}} Death Valley regional <b>ground-water</b> <b>flow</b> system were developed by the U. S. Department of Energy. In general, the two models {{were based on the}} same basic hydrogeologic data set. In 1998, the U. S. Department of Energy requested that the U. S. Geological Survey develop and maintain a <b>ground-water</b> <b>flow</b> model of the Death Valley region in support of U. S. Department of Energy programs at the Nevada Test Site. The purpose of developing this ''second-generation'' regional model was to enhance the knowledge and understanding of the <b>ground-water</b> <b>flow</b> system as new information and tools are developed. The U. S. Geological Survey also was encouraged by the U. S. Department of Energy to cooperate to the fullest extent with other Federal, State, and local entities in the region {{to take advantage of the}} benefits of their knowledge and expertise. The short-term objective of the Death Valley regional <b>ground-water</b> <b>flow</b> system project was to develop a steady-stat e representation of the predevelopment conditions of the <b>ground-water</b> <b>flow</b> system utilizing the two geologic interpretations used to develop the previous numerical models. The long-term objective of this project was to construct and calibrate a transient model that simulates the ground-water conditions of the study area over the historical record that utilizes a newly interpreted hydrogeologic conceptual model. This report describes the result of the predevelopment steady-state model construction and calibration...|$|E
40|$|The Effingen Member is a low-permeability rock unit of Oxfordian age (ca. 160 Ma) {{that occurs}} across {{northern}} Switzerland. It comprises sandy calcareous marls and (argillaceous) limestones. This report describes the hydrogeochemistry, mineralogy and supporting physical {{properties of the}} Effingen Member in three boreholes in the Jura-Südfuss area: Oftringen, Gösgen and Küttigen, where it is 220 – 240 m thick. The top of the Effingen Member is at 420, 66 and 32 m depths at the three sites. Core materials are available from Oftringen and Gösgen, whereas information from Küttigen is limited to cuttings, in-situ hydrogeological testing and geophysical logging. Hydrogeological boundaries of the Effingen Member vary between locations. <b>Ground-water</b> <b>flows</b> were identified during drilling at the top (Geissberg Member), {{but not at the}} base, of the Effingen Member at Oftringen, at the base (Hauptrogenstein Formation) of the Effingen Member at Gösgen, and in a limestone layer (Gerstenhübel unit) within the Effingen Member at Küttigen. The marls and limestones of the Effingen Member have carbonate contents of 46 – 91 wt. -...|$|R
40|$|The Mesabi Range {{along the}} north edge of the Paleoproterozoic Penokean orogen in {{northern}} Minnesota has produced 3. 6 billion metric tons of ore since its discovery in 1890. Of that amount, 2. 3 billion metric tons were extracted from hematite- or goethite-rich deposits generally referred to as "high-grade " ores. The high-grade ores formed as the Biwabik Iron-Formation was oxidized, hydrated, and leached by solutions flowing along open faults and fractures. The source of the ore-forming solutions has been debated since it was first pro-posed that the ores were weathering products formed by descending meteoritic <b>ground-water</b> <b>flowing</b> in late Mesozoic time. Subsequently others believed that the ores were better explained by ascending solutions, poss-bily hydrothermal solutions of pre-Phanerzoic age. Neither Wolff nor Gruner could reconcile their observa-tions with a reasonable source for the solutions. In this paper, I build on modern mapping of the Mesabi Range and mine-specific geologic observations summarized in the literature to propose a conceptual model in which the high-grade ores formed from ascending solutions {{that were part of}} a continent-scale topographic orgrav-ity-driven ground-water system. I propose that the ground-water system was active during the later stages of the development of a coupled fold and thrust belt and foreland basin that formed during the Penokean orogen...|$|R
40|$|Paper {{presented}} at the 9 th International Conference on Heat Transfer, Fluid Mechanics and Thermodynamics, Malta, 16 - 18 July, 2012. The formulation and testing of a control-volume finite element method (CVFEM) for the prediction of three-dimensional, linear and nonlinear, diffusion-type phenomena in anisotropic media in irregular calculation domains are presented and discussed in this paper. In this CVFEM, the calculation domain is discretized into four-node tetrahedral elements. Contiguous, non-overlapping, polyhedral control volumes are then associated with each node, and the governing differential equation is integrated over these control volumes. The dependent variable is interpolated linearly in each four-node tetrahedral element. Centroidal values of the diffusion coefficients are stored and assumed to prevail over the corresponding tetrahedral element. The source term is linearized, and nodal values of its coefficients are stored and assumed to prevail over the polyhedral sub-control volumes. Using these interpolation functions, the discretized equations, which are algebraic approximations to the integral conservation equations, are derived. The discretized equations, which in general, are nonlinear and coupled, are solved using an iterative procedure. The proposed CVFEM for the solution of anisotropic diffusion- type problems {{appears to be the}} first such method that is based on tetrahedral elements and vertex-centered polyhedral control volumes. These features make it particularly attractive for amalgamation with adaptive-grid schemes and applications to problems with complex irregular geometries, such those encountered in the general areas of drying, <b>ground-water</b> <b>flows,</b> conduction in composite materials, injection molding in heterogeneous porous media, and solidification. The proposed three-dimensional CVFEM and its computer implementation were tested using several steady conduction-type problems, for which analytical solutions were constructed using a special technique. In all cases, the agreement between the numerical and analytical solutions was excellent. dc 201...|$|R
40|$|Proceedings of the 2003 Georgia Water Resources Conference, held April 23 - 24, 2003, at the University of Georgia. The U. S. Geological Survey (USGS) {{compiled}} {{and integrated}} water-use data from 1980 to 2000 for coastal Georgia, South Carolina, and Florida {{for use in}} regional <b>ground-water</b> <b>flow</b> models. To represent accurately stresses on the <b>ground-water</b> <b>flow</b> system, <b>ground-water</b> <b>flow</b> models require that pumping rates be distributed temporally and spatially among three aquifer units. Water withdrawal data from different sources are inconsistent: pumping rates are estimated for different years or different schedules; data sets include estimates of single well or well-field specific pumping rates or a countywide aggregate pumping rate; and each of these data sources may not include aquifer designations. Several assumptions were made to construct model input to accommodate these inconsistencies...|$|E
40|$|Many simple (without thermal effects) <b>ground-water</b> <b>flow</b> {{models have}} been used for {{analysis}} of water resource problems since the 1960 `s. The emphasis on more complicated <b>ground-water</b> <b>flow</b> models began to shift with the focus on waste management problems during the 1970 `s. The <b>ground-water</b> <b>flow</b> model development has shifted to unsaturated flow models because the unsaturated zone at Yucca Mountain was selected as a potential high-level radioactive waste disposal site. Many unsaturated flow {{models have been}} developed and used since the mid- 1980 `s. A few unsaturated flow models have also been developed in the 1990 `s. Under the U. S. Department of Energy (DOE), the Civilian Radioactive Waste Management System Management and Operating Contractor (CRWMS M&O) has the responsibility to review, evaluate, and document the existing computer models; to conduct performance assessments; and to develop performance assessment models, where necessary. Two major regulatory requirements are the main criteria for selection of <b>ground-water</b> <b>flow</b> models in the unsaturated zone. One is of calculating the pre-emplacement ground-water travel time. Our work has focused on visualization techniques, and experiments that could have more application quantitatively. Many studies are summarized in this report...|$|E
40|$|Yucca Mountain {{is being}} studied as a {{potential}} site for a high-level radioactive waste repository. In cooperation with the U. S. Department of Energy, the U. S. Geological Survey is evaluating the geologic and hydrologic characteristics of the ground-water system. The study area covers approximately 100, 000 square kilometers between lat 35 {degrees}N., long 115 {degrees}W and lat 38 {degrees}N., long 118 {degrees}W and encompasses the Death Valley regional <b>ground-water</b> <b>flow</b> system. Hydrology {{in the region is}} a result of both the and climatic conditions and the complex described as dominated by interbasinal flow and may be conceptualized as having two main components: a series of relatively shallow and localized flow paths that are superimposed on deeper regional flow paths. A significant component of the regional <b>ground-water</b> <b>flow</b> is through a thick Paleozoic carbonate rock sequence. Throughout the regional flow system, <b>ground-water</b> <b>flow</b> is probably controlled by extensive and prevalent structural features that result from regional faulting and fracturing. Hydrogeologic investigations over a large and hydrogeologically complex area impose severe demands on data management. This study utilized geographic information systems and geoscientific information systems to develop, store, manipulate, and analyze regional hydrogeologic data sets describing various components of the <b>ground-water</b> <b>flow</b> system...|$|E
40|$|The {{water-bearing}} strata in {{the area}} under study consist mainly of fluviatile Pleistocene. The base is formed by the marine Plio-Pleistocene, the top by the Holocene clay and peat deposits. The chemical composition of the ground-water in this aquifer depends on processes related to the geological history, not {{on the type of}} sediment. The most important of these processes is cation exchange, which occurs in two ways. When fresh water replaces salt water in the aquifer, an exchange takes place between the Ca 2 + ions from the ground-water and the exchangeable Na+ ions from the sediments. The reverse process takes place when sea-water infiltrates a sediment with fresh ground-water: the Na+ ions from the sea-water are exchanged for Ca 2 + ions from the sediments. A classification of ground-water according to 8 types was made. These types are indicated on a map and on sections. In {{the western part of the}} area, intrusion of salt water originating from the Eemian transgression can be recognized. During the Calais transgression salt water infiltrated the aquifer; this salt water has gradually been replaced by fresh water. In part of the area salt water also infiltrated during the Duinkerke transgression. In an east-west zone, where the <b>ground-water</b> <b>flows</b> from the high-lying areas in the north and the Pleistocene outcrops in the south converge, the fresh/salt water boundary rises. In this zone high Cl¯-concentrations occur at the surface locally, due to increased upward seepage through the Holocene clay and peat layers at places where the vertical resistance is low. In some bore-holes the concentration of the minor constituents I¯ and Br¯ and of the isotopes of oxygen and carbon was measured. The Cl¯: Br¯ concentration ratio proved to be indicative of polluted ground-water. High 13 C concentrations are an indication for an upward <b>flow</b> of <b>ground-water...</b>|$|R
40|$|Summary i). New localities for the {{subterranean}} copepods Chappuisius inopinus Kiefer and C. singeri Chappuis {{are recorded}} in the valleys of the Lahn, Niederrhein, Ruhr, Leine and Unterweser rivers. ii). An analysis of the ecological features of their habitats shows both species are typical inhabitants of subsoil water in layers of sand and gravel {{some distance from the}} river beds. Orghidan´s “hyporheical biotope” is colonised by Chappuisius secondarily from interstitial <b>ground-water</b> which <b>flows</b> underground into the sands and gravels of river beds. iii). The genus Chappuisius fits into Husmann´s “Parastenocaris-Bathynella Biozönose” and into Thienemann`s group of “Archaische Typen der Süsswasserfauna”. iv). The mesopsammal biotope of Chappuisius is in accord with the views of Thienemann (1932) concerning the time factor; but Monard´s principle is not applicable. v). The family Chappuisiidae has arisen from related marine forms which existed in the beach mesopsammal in the Tertiary period...|$|R
40|$|Abstract Develi Basin is a {{semi-arid}} basin {{in central}} Turkey where water sustains both irrigated agriculture and an internationally important wetland, the Sultan Marshes. Agricultural and environmental {{changes in the}} Develi Basin have occurred since irrigation management was transferred in 1994 from a state authority (DSI) to irrigation associations (Kovalı and Ağcaaşar IAs). In this paper we evaluate the practices of the IAs using extensive data from interviews with farmers and IA officials, as well as data from reports prepared by DSI and the IAs, using comparisons with case studies reported in the scientific literature. Irrigated areas and surface water use in the Develi Basin showed significant fluctuations from 1995 to 2003. The area allocated to high water-consuming plants increased. Maintenance activities became dependent on fee collection rates. Quality of the irrigation water did not changed significantly. <b>Ground-water</b> levels, <b>flow</b> rates from springs, and water levels in the Sultan Marshes all dropped. Overall analyses indicate that the water requirements of the Sultan Marshes have not been met, while water use for irrigation has been effective but not efficient. To reconcile agricultural and wetland water requirements, a basin-wide approach in water planning is recommended. Amounts of water to be allocate...|$|R
40|$|Cover illustration. Recharge {{points for}} {{simulated}} particles of water within the <b>ground-water</b> <b>flow</b> system of Clark County, Washington, {{based on a}} particle-tracking analysis using MODPATH. The <b>ground-water</b> <b>flow</b> system was represented {{as part of a}} three-dimensional <b>ground-water</b> <b>flow</b> model of the Portland Basin, Oregon and Washington, simulated with MODFLOW, using a grid of 90 columns, 50 rows, and 8 layers. The particles were generated by placing a regularly spaced array of 6 particles per cell, 1 on each cell face within the <b>ground-water</b> <b>flow</b> model that represents Clark County, for a total of about 60, 000 particles, and tracking the particles backwards in time through the simulated flow system. The recharge points are shaded {{on the basis of the}} distance traversed by the particles, with darker shades representing longer distances. Recharge areas for intermediate- and regional-scale flow systems are indicated by a high density of dark recharge points. The results of the particle-tracking simulation were used to evaluate ground-water vulnerability by identifying recharge areas and their characteristics, determining the downgradient impact of land use at recharge areas, and estimating the age of ground water. A description of the methods used and the results of the evaluation of ground-water vulnerability are presented in this report...|$|E
40|$|The {{effects of}} {{potential}} future withdrawals from wells J- 12, J- 13, and UE- 25 c {number_sign} 3 on the <b>ground-water</b> <b>flow</b> {{system in the}} area surrounding Yucca Mountain, Nevada, were simulated by using an existing (1997) three-dimensional regional <b>ground-water</b> <b>flow</b> model. The 1997 regional model was modified only to include changes at the pumped wells. Two steady-state simulations (baseline and predictive) were conducted to estimate changes in water level and changes in ground-water outflow from Jackass Flats, where the pumped wells are located, south to the Amargosa Desert...|$|E
40|$|Acidic {{water with}} {{elevated}} concentrations of metals has contaminated a stream and alluvial aquifer in a mining district near Globe, Arizona. The contaminated aquifer is a narrow layer of unconsolidated alluvium along Miami Wash and Final Creek. The {{purpose of this}} study was to evaluate the hydrogeology of this area and to simulate the surface- and <b>ground-water</b> <b>flow.</b> The alluvium overlies basin fill which extends throughout most of Final Creek basin. Together, the alluvium and basin fill comprise the primary aquifer in the basin. Horizontal hydraulic conductivities have been estimated to be about 200 m/day in the alluvium, and average linear, <b>ground-water</b> <b>flow</b> velocities are on the order of 5 m/day. Flow was simulated by a three-dimensional, finite-difference, <b>ground-water</b> <b>flow</b> model that maintains a streamflow water budget. Steady-state simulations were performed and adjusted to represent average annual water budget conditions. The transient simulation period covers September 1984 to April 1989, for which considerable data were available for model calibration...|$|E
40|$|This paper reviews work on {{the subject}} of {{groundwater}} published in Géotechnique over the past 60 years. Contributions relating to the effects of groundwater on geotechnical structures, measurement of pore water pressure using piezometers, analysis of groundwater <b>flow,</b> <b>ground-water</b> control or construction dewatering, estimating hydraulic conductivity, and passive vertical drains are summarised and discussed. Three major areas of significant impact are identified: (a) the realisation of the dominant role of pore water pressure equilibration in the delayed failure of cut slopes; (b) determination of the hydraulic conductivity of soils by means of rising- or falling-head tests in piezometers and boreholes; and (c) understanding the role of soil fabric in groundwater control, and using it to extend the operational range of pumped groundwater control techniques to soils of low permeabilit...|$|R
40|$|HIG Series, HIG-WRRC - 3 The {{rocks at}} the surface in Anaehoomalu and Lalamilo {{primarily}} are lavas from Mauna Loa which flowed through the saddle between Mauna Kea and Hualalai. These basalt lava flows, partly pahoehoe, but mainly aa, are generally quite permeable. No perched water or dike-impounded water is known in the area, certainly not close to the shore, and the fresh ground water is believed to occur in a thin layer at about sea level. Ground-water flux through the Anaehoomalu and Lalamilo districts {{is thought to be}} quite low, owing to the small recharge which results from the generally low rainfall and the high evapotranspiration. Computations of recharge from annual rainfall and losses from evapotranspiration suggest that the discharge along the shoreline averages only a few million gallons per day per mile. Onshore reconnaissance, which included sampling and electrical resistivity, and an offshore conductivity survey confirm that fresh and brackish water appears to be discharging along the coastline from Hapuna Bay to Keawaiki Bay in quantities too small to be easily detected. No anomalously high ground-water levels which might indicate the presenoe of large <b>ground-water</b> <b>flows</b> were detected. A preliminary survey of salinity of coastal wells, springs, and water hole, and a visual search for ground water discharging at the shoreline did not show any evidence of such discharges on the order of millions of gallons per day. These data prompted an offshore salinity survey and electrical resistivity profiling onshore. The offshore reconnaissance did not detect distinctly fresh water. However, ten areas of discharge of brackish or fresh water were detected. Although it is extremely difficult to determine the exact volume of discharge, a reasonable estimate of the volume of flow of brackish and fresh-water discharges ranges from a few tens of thousands of gallons per day at eight discharge points to perhaps one million gallons per day from each of the two larger discharge zones. No evidence indicates that the flow of brackish and fresh water from the ten discharge points detected by this survey exceeds a few million gallons per day. All of the brackish and fresh-water discharges were detected in bays. It is not known whether this represents the true pattern of discharge or whether water being discharged along headland areas is very rapidly dissipated because of the high concentration of surf energy. Electrical, resistivity profiles using a Wenner spread were taken at 185 locations and electrical resistivity soundings, using a Schlumberger spread, were made at three of these locations. The soundings showed ground water to be very conductive up to sea level, and also indicated that the 70 -foot spacing between sounding sites was appropriate for the profiling. Neither a depression in the fresh-saline interface nor a higher permeability region having fresher water was indicated in the profile. Since profiling data are relative, interpretation is rather simple. By the combined use of sounding and profiling data, a layer of brackish water eight feet thick, equivalent to a head of two-tenths of a foot should have been discernible but no detectable fresh-water body of any thickness was found. Water Resources Research Center and Director of the Hawaii Institute of Geophysic...|$|R
50|$|The primary {{agricultural}} {{nonpoint source}} pollutants are nutrients (particularly nitrogen and phosphorus), sediment, animal wastes, pesticides, and salts. Agricultural nonpoint sources enter surface water through direct surface runoff or through seepage to ground water that discharges to a surface water outlet. Various farming activities {{result in the}} erosion of soil particles. The sediment produced by erosion can damage fish habitat and wetlands, and often transports excess agricultural chemicals resulting in contaminated runoff. This runoff in turn affects changes to aquatic habitat such as temperature increases and decreased oxygen. The most common sources of excess nutrients in surface water from nonpoint sources are chemical fertilizers and manure from animal facilities. Such nutrients cause eutrophication in surface water. Pesticides used for pest control in agricultural operations can also contaminate surface as well as <b>ground-water</b> resources. Return <b>flows,</b> runoff, and leach ate from irrigated lands may transport sediment, nutrients, salts, and other materials. Finally, improper grazing practices in riparian areas, as well as upland areas, can also cause water quality degradation. The development of Pakistan {{is viewed as a}} multigenerational enterprise.|$|R
40|$|Ground-water {{withdrawal}} {{estimates from}} 1913 through 2003 for the Death Valley regional <b>ground-water</b> <b>flow</b> system are compiled in an electronic database {{to support a}} regional, three-dimensional, transient <b>ground-water</b> <b>flow</b> model. This database updates a previously published database that compiled estimates of ground-water withdrawals for 1913 – 1998. The same methodology is used to construct each database. Primary differences between the 2 databases are an additional 5 years of ground-water withdrawal data, well locations in the updated database are restricted to Death Valley regional <b>ground-water</b> <b>flow</b> system model boundary, and application rates are from 0 to 1. 5 feet per year lower than original estimates. The lower application rates result from revised estimates of crop consumptive use, {{which are based on}} updated estimates of potential evapotranspiration. In 2003, about 55, 700 acre-feet of ground water was pumped in the DVRFS, of which 69 percent was used for irrigation, 13 percent for domestic, and 18 percent for public supply, commercial, and mining activities...|$|E