14|287|Public
50|$|The second cave, {{which was}} {{discovered}} {{as a result}} of <b>groundwater</b> <b>lowering,</b> is poor in terms of stalactite formations compared with the first section, although it is longer. To proceed through the second gallery is extremely difficult.|$|E
40|$|A three {{dimensional}} finite difference model {{have been}} applied to simulate the groundwater system using a well-known computer code called Visual MODFLOW. Twenty-one wells of 1500 m 3 /sec with two subground dams proposed to construct at {{the east and west}} of the Ancient Babylon City have been proposed to lower water table elevation. The study concerns the effect of subground dam’s properties (subground dam thickness and hydraulic conductivity) on the <b>groundwater</b> <b>lowering</b> in the Ancient Babylon City. According to results, subground dams installation in the studied region provides flexibility in the decision of <b>groundwater</b> <b>lowering</b> strategy where it found that there is a range of dam thickness- hydraulic conductivity combination can result suitable groundwater elevations for safe archaeological exploration...|$|E
40|$|AbstractGroundwater {{lowering}} {{has brought}} {{a great impact on}} high speed railway. It has developed a measurable regional settlement of subgrade and also made a negative impact on piles under subgrade. In this paper, two structure types, namely P-R structure and P-N structure under subgrade have been considered at different <b>groundwater</b> <b>lowering</b> rates. Plaxis 3 D is employed to assess subgrade center point's settlement, piles’ negative skin friction, increment of skin friction in piles and piles’ axial force. From the results, we can figure that <b>groundwater</b> <b>lowering</b> indeed has a negative impact on subgrade and the maximum negative skin friction of piles can increases up to 30 - 40 kN/m. The axial force in piles can be twice as initial conditions...|$|E
5000|$|Engineering {{responses}} including deep drainage and pumping (to <b>lower</b> <b>groundwater)</b> ...|$|R
50|$|Global {{warming is}} {{dramatically}} increasing extreme weather. Ciénaga restoration and management {{will become increasingly}} more challenging because this forthcoming barrage of heat and drought will occur {{in a context of}} ever-deepening incisions and a landscape degraded and stripped of grasses with <b>groundwater</b> <b>lower</b> than ever. Pile extreme weather events — less but heavier rains, worse storms — atop these existing conditions, and the tasks of reversing the 200-year erosive trend that has bankrupted these systems and recapturing stable ciénaga dynamics become formidable. It is worth mention, that as carbon sequestration gains recognition in the challenges posed by climate change, ciénagas serve as “sweet spots” for carbon capture.|$|R
500|$|Surface {{water flows}} into mines and accumulates along with groundwater. This water must be pumped out {{in order for}} mining to proceed. The water that is pumped from the mines and the coolant water used by oil shale-fired power {{stations}} combined exceeds 90% of all water used in Estonia. For each cubic meter of oil shale mined in Estonia, [...] of water must be pumped from the mines, amounting to about [...] that are pumped from mines annually. Groundwater comprises 64% of the water pumped from underground mines annually and 24% of that pumped from open-pit mines. This alters both the circulation {{and quality of the}} <b>groundwater,</b> <b>lowers</b> <b>groundwater</b> levels, and releases mine water into surface water bodies such as rivers and lakes. Mining activities have contributed to lower water levels in 24 out of the 39 lakes in the Kurtna Lake District. The release of mine water into the environment has changed the natural movement of surface water. As a result of mining activities, groundwater moves towards the excavation cavities. A 220-kilometre (85-square-mile) underground water body that holds over [...] of water has formed in eight abandoned underground mines: Ahtme, Kohtla, Kukruse, Käva, Sompa, Tammiku, No.2 and No.4.|$|R
40|$|Abstract. Phenomenon of {{surrounding}} rock deformation and collapse, <b>groundwater</b> <b>lowering,</b> ground collapse and cracking {{appeared in a}} tunnel project. It is necessary to study mechanical properties of alteration zone for guarantying construction safety and ensuring the reliability of supporting structures. This paper, using geological survey and microanalysis methods, determines the mineral composition of all typical altered rocks in the alteration zone. Furthermore, an overall understanding of their physical and mechanical characteristics will be presented {{based on the results}} of physical and mechanical (triaxial and direct shear tests) tests...|$|E
40|$|I {{this paper}} we {{present the results}} of a study aimed to define the {{environmental}} impacts of quarry activities in the suburban belt of Rome. The hydrological and hydrogeological modificatios induced by the quarry activities rceive particular attention and can be summarized as: (a) disruptive <b>groundwater</b> <b>lowering</b> as a result of quarrying activity below groundwater level; (b) dewatering of parts of the area as a consequence of quarry site back-filling with low permeability materials, morphological alteration and soil degradation, with consequent loss of environmental structure in large parts of the area; and (c) river system alteration or its complete distruption as a result of dispersed and unplanned site development. The study has been developed through a multidisciplinary approach using sedimentological, geomorphological and hydrogeological methods...|$|E
40|$|By {{developing}} Pipe Express® Herrenknecht AG has set {{new standards}} for installing pipelines. With this system, no <b>groundwater</b> <b>lowering</b> is necessary and, {{in comparison with}} the open construction method, routes can be considerably narrower. This has a positive effect on construction costs. Because it is highly ecological and cost-efficient procedure, the development of this new system is being subsidized by the German Environment Ministry. The Pipe Express® technology combines the advantages of trenchless installations and open-cut solutions. Pipe Express® can be used in any kind of soft to medium formations. However, the technology exhibits its major benefits mainly in unstable soils such as sand and gravel as well as in soil with water-bearing layers. As the pipeline is quickly installed in one step and fewer construction machines are required, emissions of exhaust gases and noise can be decreased by using Pipe Express®considerably...|$|E
40|$|The {{mineralogy}} and geochemistry of pedogenic {{and groundwater}} silcretes and ferricretes and associated groundwater geochemistry were investigated for deeply weathered, highly kaolinised regolith in southwestern Australia. The silcretes and ferricretes form shallow hardpans and impede drainage {{of the highly}} saline, acidic, shallow <b>groundwaters</b> in <b>lower</b> valleys of the subdued, ancient landscape. These valley...|$|R
5000|$|... reduces {{nutrient}} loss by leaching {{of the root}} zone, which results in better <b>groundwater</b> quality and <b>lower</b> fertilizer needs as for cultivation under full irrigation; ...|$|R
40|$|The {{principle}} of Subsurface Arsenic (As) Removal (SAR) is to extract anoxic groundwater, aerate it and reinject it. Oxygen in the injected water reacts with iron in the resident groundwater to form hydrous ferric oxide (HFO). Dissolved As sorbs onto the HFO, {{which allows for}} the extraction of <b>groundwater</b> with <b>lower</b> As concentrations. Water Resource...|$|R
40|$|Palaeosols {{have long}} been studied as {{valuable}} records of past climate and landscape changes. The influence of palaeosols on the functioning of present-day landscapes is receiving closer attention due to the relevance of palaeosols on long-term hydrological processes and the future hydrological and erosive response of catchments. This study describes a sequence of interbedded colluvial sedimentary deposits and buried palaeosols exposed by gully erosion in the Drakensberg escarpment foothills in KwaZulu-Natal province, South Africa. Model simulations are then presented that explore present-day hydrological effects of pedogenetic and textural differentiation under conditions of <b>groundwater</b> <b>lowering</b> caused by gully erosion at 14 sites. The {{results suggest that the}} colluvial deposits and palaeosols cause a significant increase in total annual drainage from most of the 14 studied sites compared with similar sites without textural or structural differentiation. In the simulations, sediment deposition, not palaeosol formation, has the most profound influence on the present-day hydrological functioning of the catchment: a true deposystem service. The effects of the limited observed palaeosol development on soil water holding capacity and actual soil water storage appear to be negligibl...|$|E
30|$|Yushenfu {{mining area}} {{is located in}} an {{ecological}} fragile area in western China, the coal seam {{of which is the}} Jurassic Yan’an Formation. The Jurassic Yan’an Formation contains five minable coal seams, the top layer of which is thick, covered by shallow overburden and located under aquifers. Therefore, the mining induced water flowing fractured zone can easily extend to the aquifers of both the Quaternary Sarahu and Jurassic Zhiluo Formation. This would result in a series of negative hydrological and ecological effects, including groundwater leakage, <b>groundwater</b> <b>lowering,</b> furtherly causing surface vegetation withering and dying, surface water body reduction, spring drying out, and water flow of river being decreased substantially. To solve these environmental problems, several technologies have been carried out by Chinese scientists, one of which is water-preserved coal mining. This paper presents a review of the origin, definition and development of water-preserved coal mining, and its applications in Yushenfu mining area. The applicable conditions, research contents, research methodology, and technical foundation of water-preserved coal mining are addressed in this paper. The future research focuses regarding water-preserved coal mining in China are also discussed in this paper. Its results serve as a guide for selecting the methods to be preferred for mining in case the geological conditions, roof overburden structure and coal mining process are similar to Yushenfu mining area.|$|E
40|$|One of {{the typical}} methods for the {{identification}} of seismo-hydrological effects is to monitor changes in the free gas flow throughout springs or mofettes. For several years, the gas flow regime of mineral springs at Bad Brambach (Germany) and mofettes in the Nature Park Soos (Czech Republic) and its dependence on hydro-/meteorological parameters have been studied. The mineral spring ‘Wettinquelle’, Bad Brambach, is a well-known seismo- hydrologically sensitive location for swarmquakes at a special epicentral area of NW Bohemia. Since 2000, a slight upward trend in the gas flow of three Bad Brambach mineral springs has been observed, which became stronger after the ‘Eisenquelle’ spring capture reconstruction (winter 2003 / 2004). Similar behaviour could be detected at a mofette in Soos. The results correspond to a 3 He/ 4 He mantle ratio increase in gases at mofettes in the Cheb Basin (CZ) traced by other authors for more than 12 years, and could give hints for a higher degassing activity of the magma body below that area. Common and special properties in the degassing regimes of the Bad Brambach and Soos locations are discussed. It is demonstrated that the long-term gas flow trend was interrupted in 2003 because of very low groundwater levels. This effect was amplified by the artificial <b>groundwater</b> <b>lowering</b> during the ‘Eisenquelle’ spring capture reconstruction...|$|E
50|$|Groundwater {{levels in}} several areas of the state are declining because of {{increased}} pumpage for irrigation and urban development. Less spring and summer recharge could <b>lower</b> <b>groundwater</b> levels.|$|R
40|$|The {{objective}} {{of this study was}} to assess the potential effects of climate change on the transport of pre-existing spatially-extensive trace metal contamination to a small lowland catchment in the south of the Netherlands. The area surrounding the Keersop has been contaminated with heavy metals by the atmospheric emissions of four zinc ore smelters. This heavy metal contamination, e. g. with Cd and Zn, has accumulated in the topsoil and leaches towards surface water system, especially during high groundwater levels and high discharge rates. Simulated projections of future climate predict increased precipitation in winter, less precipitation in summer, and higher air temperatures throughout the year. These climate change scenarios projected <b>lower</b> <b>groundwater</b> levels and <b>lower</b> discharge rates. As a result of <b>lower</b> <b>groundwater</b> levels, transport of Cd and Zn towards surface water is also projected to decrease in the future climate. These results indicate a positive effect of climate change on a limited aspect of surface water quality...|$|R
50|$|Qanats {{were found}} {{over much of}} Syria. The {{widespread}} installation of <b>groundwater</b> pumps has <b>lowered</b> the water table and qanat system. Qanats have gone dry and been abandoned across the country.|$|R
40|$|Climate in Pakistan {{gradually}} {{increases in}} severity in north-south direction; {{this is also}} the general flow direction of Indus Basin Irrigation System (IBIS) and canal commands. Thus, in general crop water demand increases and rainfall decreases in head-tail end direction of the canal commands. Insufficient delivery of canal water in comparison to increasing cropping intensities and water demands has lead share of groundwater irrigation to be at par with canal supplies. This has given birth to groundwater mining problems and increasing irrigation costs in tail ends of the canal systems. The research was conducted in Lower Bari Doab Canal (LBDC) irrigation system to explore way out to curtail and reverse abnormal <b>groundwater</b> <b>lowering</b> trends at tail ends of canal systems and ensure equity of irrigation costs. Data regarding canal water, groundwater depth and quality, spatial climate variability and crop water requirement was analysed. Groundwater model of the area was developed using Groundwater Vistas software. Groundwater pumping by the farmers was the most complex parameter; crop water deficit approach was adopted to estimate it on Kharif and Rabi season basis. Different canal water reallocation scenarios encompassing 50 years time were developed and simulated. Most plausible reallocation pattern from head to tail end of the command was found for achieving the combined cost and quality equity of canal and groundwater use in the command. At prevailing pattern and average cropping intensity of 159. 7...|$|E
40|$|Long-term {{settlement}} in clay constitutes an engineering challenge in road {{design and construction}} in areas with deep deposits of soft clay. Soil improvement and construction of building foundations or embankments can be quite complicated and expensive in such areas. Construction costs need to be balanced against high maintenance costs. In order to do this optimally, {{there is a need}} to predict long-term settlement with a high degree of accuracy. Two different test sites were chosen for back-calculation, a test embankment at Nödinge and a <b>groundwater</b> <b>lowering</b> at Kaserntorget. There was also one hypothetical test site. In this thesis a short description is presented of the fundamental behaviour of soft clays with regard to compressibility as well as a short explanation of the theory for the three different models that has been used within this thesis – Embankco, GS Settlement and the Soft Soil Creep model. Soil parameter determination for long-term settlement analysis is discussed together with some of the inherent complications. For the IL oedometer test the study shows that if the time for the load stage of interest is not sufficiently long the evaluated creep parameter could be misleading. Back-calculation of CRS oedometer tests, using the Soft Soil Creep model, is performed for this model and a procedure is suggested. The outcome of the analysis shows that all three models produce similar results for the hypothetical case. For the two test sites in question, both GS Settlement and the Soft Soil Creep model were capable of predicting the measured settlement with acceptable accuracy. The Embankco program was only used for the hypothetical case. Keywords: Soft clay, creep, test sites, long-term settlement...|$|E
40|$|In {{the lower}} River Murray in Australia, a {{combination}} of a reduction in the frequency, duration and magnitude of natural floods, rising saline water tables in floodplains, and excessive evapotranspiration have led to an irrigation-induced groundwater mound forcing the naturally saline groundwater onto the floodplain. It is during the attenuation phase of floods that these large salt accumulations are likely to be mobilised and discharged into the river. This has been highlighted as the most significant risk in the Murray–Darling Basin and the South Australian Government and catchment management authorities have subsequently developed salt interception schemes (SIS). The aim of these schemes is to reduce the hydraulic gradient that drives the regional saline groundwater towards the River Murray. This paper investigates the interactions between a river (River Murray in South Australia) and a saline semi-arid floodplain (Clark's floodplain) that is significantly influenced by <b>groundwater</b> <b>lowering</b> due to a particular SIS. The results confirm that groundwater extraction maintains a lower water table and a higher amount of fresh river water flux to the saline floodplain aquifer. In terms of salinity, this may lead to less solute stored in the floodplain aquifer. This occurs through three mechanisms, namely extraction of the solute mass from the system, reducing the saline groundwater flux from the highland to the floodplain and changing the floodplain groundwater regime from a losing to a gaining one. It is shown that groundwater extraction is able to remove some of the solute stored in the unsaturated zone and this can mitigate the floodplain salinity risk. A conceptual model of the impact of groundwater extraction on floodplain salinization has been developed...|$|E
50|$|As of 2013, Grenada had a US$6.9 million {{pilot project}} to adapt its {{irrigation}} system {{to climate change}} and conduct local and regional water planning, funded by the German International Climate Initiative (IKI). <b>Groundwater</b> depletion, <b>lower</b> water tables, disruption of water supply by hurricanes (such as Hurricane Ivan), saltwater intrusion, and rising sea levels pose challenges for providing a consistent water supply for agriculture and tourism.|$|R
30|$|When the {{concentration}} of sodium is high in irrigation water, {{it tends to be}} adsorbed by clay particles displacing calcium and magnesium. The exchange process of sodium in water for calcium and magnesium in soil reduces the permeability resulting in soil with poor drainage including poor air and water circulation (Collins and Jenkins 1996; Saleh et al. 1999). The range of PI for upper and <b>lower</b> <b>groundwater</b> samples varied from 80.64 to 789.39  meq/l for upper layer groundwater and from 3.00 to 306.61  meq/l for <b>lower</b> <b>groundwater</b> layer. These values of PI indicate poor through moderate to good water for irrigation (Table  9).|$|R
40|$|Hydrogeochemical {{investigation}} {{was carried out}} in the toposequence of Gleysols and Retisols within the Opalenica Plain. Groundwater samples from the study area were collected every two or four weeks from 2002 to 2006 in pre-cleaned 1 -L polyethylene bottle from 2 representative wells. The results of research indicated that the quantity of dissolved components in groundwater was connected with wells location in the relief and the properties of soil parent materials. The groundwater of soil located higher in the slope (Retisols) was characterized by smaller concentrations of the analysed components, when compared with the composition of <b>groundwater</b> from <b>lower</b> sites of the slope (Gleysols). The groundwater chemistry is mainly controlled by weathering of carbonate minerals as well as silicate weathering. Moreover, the research results indicate that evaporation process can influence the chemical composition of <b>groundwater</b> in the <b>lower</b> part of the slope...|$|R
40|$|This Systematic Review aims to {{consider}} the impact {{of changes in the}} ground water table and soil moisture regime on structural stability of buildings and foundation systems. The possible changes in the water table levels and soil moisture conditions are expected as a result of environmental change. Building and infrastructure damage occurs where differential movements exceed the thresholds that the buildings or infrastructure can sustain. At locations where uniform vertical settlement dominates, buildings often move vertically with the subsiding ground surface and little damage occurs. It is when excessive differential deformation occurs that buildings and infrastructure are more prone to damage. A number of criteria for damage risk assessment are described. The expectation is that that settlement (downward movement of the ground surface) will occur during <b>groundwater</b> <b>lowering</b> and heave (upward movement of the ground surface) during groundwater rise. However, no cases of damage due to heave resulting from groundwater level rise per se were found in the literature reviewed. However, there were a significant number of cases of damage due to collapse settlements due to inundation during groundwater level rise. Collapse settlements in fill materials due to rising ground water levels are of major concern in the UK. Capillary rise may occur in soil above the water table. Capillary rise can cause deterioration to structures formed from monumental sandstone through dissolution of cementing minerals reducing the strength of stone and recrystallisation of dissolved salts leading to expansion of the stone. Flooding, where surface water exists above the ground surface, can be one circumstance that can lead to wetting and ground water table rise within the soil. In the first stage of flooding, the building structure is subject to the destructive impacts of water streams. In the aftermath of flooding, when water levels subside, the subsoil remains saturated with water. A further effect of flooding is that of soil erosion and scour which can do significant damage to foundations. Rises in groundwater level, can cause reductions in strength of the soil that can lead to failures of slopes. In regions of significant slope instability, significant damage to buildings can occur as a result of landslides. Lowering of the groundwater table can cause the soil to consolidate, which induces settlement. With softer, more compressible soils, settlements can become large. Many of the cases of damage reported are due to large scale land-surface subsidence induced by ground water abstraction. In some of these examples, the ground surface has fallen by as much as 8 m. Other cases deal with more localised ground water control measures, usually associated with dewatering during construction of a tunnel or deep excavation such as an underground car park or metro station. The evidence suggests that significant consolidation settlements can be induced by <b>groundwater</b> <b>lowering.</b> In soft compressible soils, very large settlements can be induced. Settlements of the order of metres can be induced by large drops in groundwater level (30 + metres). Even land subsidence of less than 1 metre can induce significant damage to buildings. Much of the damage reported that is associated with <b>groundwater</b> <b>lowering</b> occurs in buildings on shallow foundations. However, deep foundations on piles can also be affected. If soil settles relative to the pile, this can result in downdrag on the pile (known as “negative skin friction”). This additional load could potentially overstress the pile and lead to failure. A further particular problem occurs with wooden piles when the groundwater level is lowered. If the water table is lowered, this exposes {{the upper part of the}} pile to aerobic conditions and rotting and decay can start to take place. There are examples of building damage due to rotting of wooden piles Karstic conditions exist in soluble rocks such as limestone and dolomite, where ground water flow causes dissolution of the rock leading to the formation of caverns. Sinkhole formation and ground surface subsidence due to dissolution of soluble rocks is a major cause of damage to buildings in karstic areas. This is often associated with <b>groundwater</b> <b>lowering</b> changing the dynamics of the hydrogeology in calcareous rocks. However, there are examples where damage has resulted from additional flow under high water table conditions, as the greater flow causes more dissolution of the soluble rocks and erosion or removal of clay filling from the fissures. Shrinkage and swelling of clay soils is the single most common cause of foundation-related damage to low-rise buildings in the UK. Vegetation, particularly larger trees, has a significant effect of removing water from the soil and inducing shrinkage. Seasonal shrinkage and swelling will be a major factor of concern if climate change produces drier summers and wetter winters, as predicted for the UK, since greater extremes of wetting and drying will induce greater cycles of swelling and shrinkage. The evidence suggests that shrinkage during periods of drought causes the greatest degree of damage. There is evidence from France that soil conditions are becoming progressively drier and this is consistent with a long-term drying trend predicted for the UK. Peat poses particular geotechnical problems due to its high compressibility. It is made from decaying vegetation and can be very fibrous with a very open, compressible structure. Due it its high compressibility, any changes in stress resulting from groundwater level changes are likely to result in large surface settlement or heave. To be able to assess the future implications of damage to structures due to environmental change it is important to understand the economic cost of damage to buildings due the mechanisms of groundwater level change, shrink/swell etc. The costs of damage due to shrink/swell movements on clay soils have resulted in economic losses of over £ 1. 6 billion in the UK during drought years in the 1990 s. Similar figures are evident from France where losses have been as high as 3. 3 billion Є (£ 2. 7 billion) in a single year. In China, losses due to land subsidence in Shanghai are estimated to be about £ 10 billion over a decade with £ 0. 3 billion a year in losses in three other cities. Consideration has been given by researchers and strategists to the impacts of climate change on the UK built environment and what might be needed for adaption. A consensus is that potential problems to foundations could be addressed through higher specification of foundations, including greater depths for foundations, as well as by new construction methods. It is also possible that higher [increasing] minimum temperatures and fewer cold days could reduce problems associated with frost heave. It may be that an increase in the number of properties suffering damage could result in changes in the perception of the severity of damage and householders may become willing to accept minor levels of damage. Discussions about building performance in New Zealand also lead to the suggestion that risks of future climate change to buildings should be managed and this means that building codes and practices around the world will need to change to suit new climate conditions. However, changing codes and practices requires a good foundation of evidence and research. This is difficult to establish given the uncertainty of current climate change scenarios and their long timescale. There is also an awareness that buildings built now will still be in use in 50 - 100 years time. This produces a need for early action in the construction sector...|$|E